@<TRIPOS>MOLECULE
H68
   48    51     1     0     0
SMALL
No Charge or Current Charge


@<TRIPOS>ATOM
      1 C16          5.5050     2.2220    -0.1460 c3         1 H68       0.147900
      2 O4           4.1220     1.8260    -0.1330 os         1 H68      -0.351100
      3 C15          3.6610     0.5310     0.1000 ca         1 H68       0.065100
      4 C17          2.2550     0.3550     0.0640 ca         1 H68      -0.054300
      5 C18          1.3370     1.5550    -0.2170 c6         1 H68       0.220100
      6 N1          -0.0850     1.3410     0.1660 n3         1 H68      -0.725600
      7 C19         -0.9170     2.5070    -0.2070 c6         1 H68       0.174800
      8 C20         -2.3350     2.3660     0.3790 c6         1 H68      -0.026100
      9 C4          -2.9630     1.0060     0.0750 ca         1 H68      -0.065300
     10 C3          -4.3600     0.8580     0.1770 ca         1 H68      -0.153000
     11 C2          -4.9670    -0.3830    -0.1110 ca         1 H68       0.051100
     12 O1          -6.3360    -0.5800    -0.0290 os         1 H68      -0.366100
     13 C1          -7.2410     0.4690     0.3650 c3         1 H68       0.156900
     14 C7          -4.1610    -1.4670    -0.5070 ca         1 H68       0.119100
     15 O2          -4.7420    -2.6660    -0.8030 oh         1 H68      -0.536100
     16 C6          -2.7690    -1.3230    -0.6040 ca         1 H68      -0.123000
     17 C5          -2.1480    -0.0910    -0.2960 ca         1 H68      -0.070300
     18 C8          -0.6090     0.0710    -0.4160 c6         1 H68       0.235800
     19 C9           0.1690    -1.1240     0.2080 c6         1 H68      -0.018100
     20 C10          1.6880    -0.9220     0.2590 ca         1 H68      -0.091300
     21 C11          2.5180    -2.0230     0.5160 ca         1 H68      -0.077000
     22 C12          3.9090    -1.8650     0.5670 ca         1 H68      -0.188000
     23 C13          4.5030    -0.5980     0.3590 ca         1 H68       0.119100
     24 O3           5.8810    -0.4610     0.4070 os         1 H68      -0.329100
     25 C14          6.7740    -1.5600     0.6630 c3         1 H68       0.145900
     26 H1           5.5860     3.2960    -0.3560 h1         1 H68       0.035033
     27 H2           5.9760     2.0350     0.8270 h1         1 H68       0.035033
     28 H3           6.0590     1.6870    -0.9270 h1         1 H68       0.035033
     29 H4           1.7270     2.4310     0.3230 h1         1 H68       0.048700
     30 H5           1.4090     1.7880    -1.2900 h1         1 H68       0.048700
     31 H7          -0.4710     3.4400     0.1690 h1         1 H68       0.034700
     32 H8          -0.9840     2.5940    -1.3020 h1         1 H68       0.034700
     33 H9          -2.2910     2.5040     1.4680 hc         1 H68       0.054700
     34 H10         -2.9690     3.1730    -0.0110 hc         1 H68       0.054700
     35 H11         -4.9560     1.7150     0.4760 ha         1 H68       0.115000
     36 H12         -7.1830     1.3160    -0.3300 h1         1 H68       0.041367
     37 H13         -8.2740     0.1000     0.3650 h1         1 H68       0.041367
     38 H14         -7.0070     0.8260     1.3760 h1         1 H68       0.041367
     39 H15         -5.7090    -2.5450    -0.6710 ho         1 H68       0.480000
     40 H16         -2.1820    -2.1760    -0.9300 ha         1 H68       0.130000
     41 H17         -0.3890     0.0710    -1.4940 h1         1 H68       0.039700
     42 H18         -0.1990    -1.2960     1.2280 hc         1 H68       0.059200
     43 H19         -0.0430    -2.0410    -0.3560 hc         1 H68       0.059200
     44 H20          2.0830    -3.0070     0.6760 ha         1 H68       0.113000
     45 H21          4.5100    -2.7470     0.7680 ha         1 H68       0.118000
     46 H22          6.5740    -2.0050     1.6460 h1         1 H68       0.040367
     47 H23          6.6680    -2.3370    -0.1060 h1         1 H68       0.040367
     48 H24          7.8140    -1.2130     0.6530 h1         1 H68       0.040367
@<TRIPOS>BOND
     1     1     2 1   
     2     1    26 1   
     3     1    27 1   
     4     1    28 1   
     5     2     3 1   
     6     3     4 ar  
     7     3    23 ar  
     8     4     5 1   
     9     4    20 ar  
    10     5     6 1   
    11     5    29 1   
    12     5    30 1   
    13     6     7 1   
    14     6    18 1   
    15     7     8 1   
    16     7    31 1   
    17     7    32 1   
    18     8     9 1   
    19     8    33 1   
    20     8    34 1   
    21     9    10 ar  
    22     9    17 ar  
    23    10    11 ar  
    24    10    35 1   
    25    11    12 1   
    26    11    14 ar  
    27    12    13 1   
    28    13    36 1   
    29    13    37 1   
    30    13    38 1   
    31    14    15 1   
    32    14    16 ar  
    33    15    39 1   
    34    16    17 ar  
    35    16    40 1   
    36    17    18 1   
    37    18    19 1   
    38    18    41 1   
    39    19    20 1   
    40    19    42 1   
    41    19    43 1   
    42    20    21 ar  
    43    21    22 ar  
    44    21    44 1   
    45    22    23 ar  
    46    22    45 1   
    47    23    24 1   
    48    24    25 1   
    49    25    46 1   
    50    25    47 1   
    51    25    48 1   
@<TRIPOS>SUBSTRUCTURE
     1 H68         1 TEMP              0 ****  ****    0 ROOT
