@<TRIPOS>MOLECULE
H69
   39    41     1     0     0
SMALL
No Charge or Current Charge


@<TRIPOS>ATOM
      1 C1          14.6890    -1.8370    16.9060 cc         1 H69       0.040400
      2 C10          8.3100     0.1060    20.8930 ca         1 H69      -0.098000
      3 C11          6.9220     0.3290    20.8570 ca         1 H69      -0.094000
      4 C12          6.2640     0.4910    19.6260 ca         1 H69       0.119000
      5 C13          7.0010     0.4280    18.4260 ca         1 H69       0.119000
      6 C15          8.3880     0.2050    18.4640 ca         1 H69      -0.093000
      7 C18         15.7880    -3.9140    17.6130 c          1 H69       0.619000
      8 C2          13.9150    -0.5940    17.2930 c          1 H69       0.602300
      9 C21         15.9520    -3.2250    15.2730 c          1 H69       0.588200
     10 C23         15.1630    -2.0390    15.6270 cd         1 H69      -0.344200
     11 C24         10.5700    -0.2020    19.7490 c6         1 H69      -0.015400
     12 C5          12.5010    -1.7580    19.0900 c6         1 H69       0.093000
     13 C6          10.9710    -1.5220    19.0430 c6         1 H69      -0.095400
     14 C7          11.3710     0.9740    19.1360 c6         1 H69      -0.095400
     15 C8          12.8890     0.6980    19.2110 c6         1 H69       0.093000
     16 C9           9.0540     0.0420    19.6970 ca         1 H69      -0.069300
     17 N17         15.0570    -2.7890    17.8570 ns         1 H69      -0.517600
     18 N20         16.1800    -4.0620    16.3220 ns         1 H69      -0.472500
     19 N4          13.2550    -0.5850    18.5510 n          1 H69      -0.400800
     20 O19         16.0680    -4.7120    18.4850 o          1 H69      -0.545000
     21 O22         16.3740    -3.4530    14.1530 o          1 H69      -0.514000
     22 O3          13.8700     0.3920    16.5650 o          1 H69      -0.558100
     23 Cl16         4.5220     0.7690    19.6150 cl         1 H69      -0.168000
     24 H1           8.8040    -0.0170    21.8540 ha         1 H69       0.120000
     25 H2           6.3560     0.3770    21.7830 ha         1 H69       0.134000
     26 H3           8.9410     0.1600    17.5300 ha         1 H69       0.132000
     27 H4          14.9740    -1.3480    14.8140 ha         1 H69       0.231000
     28 H5          10.8690    -0.2900    20.8030 hc         1 H69       0.053700
     29 H6          12.8130    -1.9430    20.1280 h1         1 H69       0.062700
     30 H7          12.7000    -2.6670    18.5090 h1         1 H69       0.062700
     31 H8          10.6460    -1.5030    17.9930 hc         1 H69       0.059950
     32 H9          10.4530    -2.3700    19.5120 hc         1 H69       0.059950
     33 H10         11.0840     1.1310    18.0880 hc         1 H69       0.059950
     34 H11         11.1370     1.9050    19.6690 hc         1 H69       0.059950
     35 H12         13.1970     0.6510    20.2660 h1         1 H69       0.062700
     36 H13         13.4390     1.5350    18.7580 h1         1 H69       0.062700
     37 H14         14.8220    -2.6540    18.8350 hn         1 H69       0.466000
     38 H15         16.7210    -4.8870    16.1190 hn         1 H69       0.345500
     39 Cl14         6.2100     0.6260    16.8610 cl         1 H69      -0.168000
@<TRIPOS>BOND
     1     1     8 1   
     2     1    10 2   
     3     1    17 1   
     4     2     3 ar  
     5     2    16 ar  
     6     2    24 1   
     7     3     4 ar  
     8     3    25 1   
     9     4     5 ar  
    10     4    23 1   
    11     5     6 ar  
    12     5    39 1   
    13     6    16 ar  
    14     6    26 1   
    15     7    17 1   
    16     7    18 1   
    17     7    20 2   
    18     8    19 1   
    19     8    22 2   
    20     9    10 1   
    21     9    18 1   
    22     9    21 2   
    23    10    27 1   
    24    11    13 1   
    25    11    14 1   
    26    11    16 1   
    27    11    28 1   
    28    12    13 1   
    29    12    19 1   
    30    12    29 1   
    31    12    30 1   
    32    13    31 1   
    33    13    32 1   
    34    14    15 1   
    35    14    33 1   
    36    14    34 1   
    37    15    19 1   
    38    15    35 1   
    39    15    36 1   
    40    17    37 1   
    41    18    38 1   
@<TRIPOS>SUBSTRUCTURE
     1 H69         1 TEMP              0 ****  ****    0 ROOT
