@<TRIPOS>MOLECULE
H69
   39    41     1     0     0
SMALL
abcg2


@<TRIPOS>ATOM
      1 C1          14.6150    -1.7040    17.1680 cc         1 H69       0.040400
      2 C10          8.3220     0.0470    20.6080 ca         1 H69      -0.098000
      3 C11          6.9580     0.2060    20.4210 ca         1 H69      -0.094000
      4 C12          6.4340     0.2450    19.1390 ca         1 H69       0.119000
      5 C13          7.2880     0.1280    18.0480 ca         1 H69       0.119000
      6 C15          8.6510    -0.0270    18.2430 ca         1 H69      -0.093000
      7 C18         15.9970    -3.6580    17.4440 c          1 H69       0.619000
      8 C2          14.1980    -0.3830    17.7650 c          1 H69       0.602300
      9 C21         14.6500    -3.3360    15.3920 c          1 H69       0.588200
     10 C23         14.1820    -2.0900    15.9550 cd         1 H69      -0.344200
     11 C24         10.6690    -0.2400    19.7400 c6         1 H69      -0.015400
     12 C5          12.7170    -1.6370    19.3040 c6         1 H69       0.093000
     13 C6          11.2170    -1.5070    19.0760 c6         1 H69      -0.095400
     14 C7          11.4590     0.9830    19.2620 c6         1 H69      -0.095400
     15 C8          12.9510     0.7800    19.4920 c6         1 H69       0.093000
     16 C9           9.1880    -0.0740    19.5260 ca         1 H69      -0.069300
     17 N17         15.4990    -2.4550    17.8840 ns         1 H69      -0.517600
     18 N20         15.5360    -4.0280    16.2070 ns         1 H69      -0.472500
     19 N4          13.4070    -0.4410    18.8440 n          1 H69      -0.400800
     20 O19         16.7700    -4.3240    18.0940 o          1 H69      -0.545000
     21 O22         14.3250    -3.7840    14.3100 o          1 H69      -0.514000
     22 O3          14.6220     0.6370    17.2500 o          1 H69      -0.558100
     23 CL16         4.7360     0.4370    18.9160 cl         1 H69      -0.168000
     24 H1           8.7140     0.0160    21.6170 ha         1 H69       0.120000
     25 H2           6.2990     0.2980    21.2740 ha         1 H69       0.134000
     26 H3           9.2930    -0.1130    17.3740 ha         1 H69       0.132000
     27 H4          13.4830    -1.4880    15.3930 ha         1 H69       0.231000
     28 H5          10.8360    -0.3370    20.8190 hc         1 H69       0.053700
     29 H6          12.9280    -1.7650    20.3700 h1         1 H69       0.062700
     30 H7          13.0910    -2.5230    18.7960 h1         1 H69       0.062700
     31 H8          11.0250    -1.4920    18.0000 hc         1 H69       0.059950
     32 H9          10.7200    -2.3900    19.4810 hc         1 H69       0.059950
     33 H10         11.2750     1.1590    18.1980 hc         1 H69       0.059950
     34 H11         11.1340     1.8760    19.7990 hc         1 H69       0.059950
     35 H12         13.1550     0.6880    20.5620 h1         1 H69       0.062700
     36 H13         13.5240     1.6260    19.1200 h1         1 H69       0.062700
     37 H14         15.8210    -2.1410    18.7900 hn         1 H69       0.466000
     38 H15         15.8860    -4.9110    15.8550 hn         1 H69       0.345500
     39 CL14         6.6670     0.1690    16.4410 cl         1 H69      -0.168000
@<TRIPOS>BOND
     1     1     8 1   
     2     1    10 2   
     3     1    17 1   
     4     2     3 ar  
     5     2    16 ar  
     6     2    24 1   
     7     3     4 ar  
     8     3    25 1   
     9     4     5 ar  
    10     4    23 1   
    11     5     6 ar  
    12     5    39 1   
    13     6    16 ar  
    14     6    26 1   
    15     7    17 1   
    16     7    18 1   
    17     7    20 2   
    18     8    19 1   
    19     8    22 2   
    20     9    10 1   
    21     9    18 1   
    22     9    21 2   
    23    10    27 1   
    24    11    13 1   
    25    11    14 1   
    26    11    16 1   
    27    11    28 1   
    28    12    13 1   
    29    12    19 1   
    30    12    29 1   
    31    12    30 1   
    32    13    31 1   
    33    13    32 1   
    34    14    15 1   
    35    14    33 1   
    36    14    34 1   
    37    15    19 1   
    38    15    35 1   
    39    15    36 1   
    40    17    37 1   
    41    18    38 1   
@<TRIPOS>SUBSTRUCTURE
     1 H69         1 TEMP              0 ****  ****    0 ROOT
