@<TRIPOS>MOLECULE
H6A
   65    69     1     0     0
SMALL
abcg2


@<TRIPOS>ATOM
      1 C02          5.7270    -3.0750    -0.2690 c          1 H6A       0.715600
      2 C04          5.0180    -1.7190    -0.2790 ca         1 H6A      -0.108600
      3 C05          5.7300    -0.5300    -0.1540 ca         1 H6A      -0.130000
      4 C06          5.0390     0.6690    -0.1680 ca         1 H6A       0.306900
      5 C08          3.0530    -0.3800    -0.4040 ca         1 H6A       0.387500
      6 C10          0.8290     0.6270     0.0930 cc         1 H6A      -0.062000
      7 C11          1.2590     1.5480     1.1530 ca         1 H6A       0.003000
      8 C12          1.1130     2.9230     0.9920 ca         1 H6A      -0.080000
      9 C13          1.4800     3.7910     2.0110 ca         1 H6A      -0.120500
     10 C14          2.0010     3.2920     3.1970 ca         1 H6A      -0.114000
     11 C15          2.1480     1.9200     3.3630 ca         1 H6A      -0.120500
     12 C16          1.7760     1.0520     2.3480 ca         1 H6A      -0.080000
     13 C18         -0.4360     0.3760    -0.3920 cd         1 H6A      -0.219300
     14 C35         -0.2640    -0.6880    -1.2980 cd         1 H6A       0.257900
     15 C37          3.6390    -1.6390    -0.4010 ca         1 H6A      -0.101000
     16 N07          3.7210     0.7510    -0.3020 nb         1 H6A      -0.708000
     17 N09          1.6520    -0.2610    -0.5290 na         1 H6A       0.147300
     18 N36          0.9950    -1.0620    -1.3700 nc         1 H6A      -0.497800
     19 O01          6.9610    -3.0430    -0.1260 o          1 H6A      -0.706000
     20 O03          5.0000    -4.0740    -0.4060 o          1 H6A      -0.706000
     21 C19         -1.7190     1.0350     0.0060 c3         1 H6A       0.304900
     22 C22         -5.0270    -0.5680    -0.0340 c3         1 H6A       0.177800
     23 C24         -5.6850    -2.8170    -0.4660 c6         1 H6A       0.172800
     24 C25         -5.2570    -4.2770    -0.4560 c6         1 H6A      -0.076400
     25 C26         -4.9240    -4.7280     0.9600 c6         1 H6A      -0.073400
     26 C27         -3.9040    -3.7800     1.5760 c6         1 H6A      -0.076400
     27 C28         -4.3770    -2.3360     1.4860 c6         1 H6A       0.172800
     28 C29         -1.9640     2.3330    -0.7400 ca         1 H6A      -0.108300
     29 C30         -2.0860     2.3330    -2.1270 ca         1 H6A      -0.089500
     30 C31         -2.3260     3.5150    -2.8110 ca         1 H6A      -0.121500
     31 C32         -2.4500     4.7140    -2.1160 ca         1 H6A      -0.114000
     32 C33         -2.3370     4.7200    -0.7330 ca         1 H6A      -0.121500
     33 C34         -2.0990     3.5320    -0.0520 ca         1 H6A      -0.089500
     34 N23         -4.6700    -1.9600     0.1170 n3         1 H6A      -0.703600
     35 O20         -2.7440     0.1070    -0.2470 os         1 H6A      -0.426000
     36 H1           6.8050    -0.5380    -0.0510 ha         1 H6A       0.140000
     37 H2           5.5710     1.6100    -0.0780 h4         1 H6A      -0.000900
     38 H3           0.7210     3.3140     0.0630 ha         1 H6A       0.124000
     39 H4           1.3630     4.8580     1.8740 ha         1 H6A       0.105500
     40 H5           2.2880     3.9680     3.9920 ha         1 H6A       0.100000
     41 H6           2.5490     1.5250     4.2870 ha         1 H6A       0.105500
     42 H7           1.8840    -0.0160     2.4870 ha         1 H6A       0.124000
     43 H8          -1.0140    -1.1940    -1.8850 h4         1 H6A       0.041100
     44 H9           3.0360    -2.5320    -0.4840 ha         1 H6A       0.160000
     45 H11         -1.6690     1.2710     1.0810 h1         1 H6A       0.039700
     46 H12         -4.3110     1.4220     0.1340 h1         1 H6A       0.019700
     47 H13         -3.8210     0.4090     1.4850 h1         1 H6A       0.019700
     48 H14         -5.9430    -0.2990     0.5240 h1         1 H6A       0.028700
     49 H15         -5.2550    -0.3940    -1.0900 h1         1 H6A       0.028700
     50 H18         -6.0530    -4.8900    -0.8840 hc         1 H6A       0.048700
     51 H19         -4.3790    -4.3950    -1.0970 hc         1 H6A       0.048700
     52 H20         -5.8360    -4.7220     1.5660 hc         1 H6A       0.033200
     53 H21         -4.5520    -5.7550     0.9630 hc         1 H6A       0.033200
     54 H22         -3.7210    -4.0330     2.6230 hc         1 H6A       0.048700
     55 H23         -2.9480    -3.8740     1.0520 hc         1 H6A       0.048700
     56 H24         -5.2600    -2.2040     2.1400 h1         1 H6A       0.023950
     57 H25         -3.5940    -1.6860     1.8810 h1         1 H6A       0.023950
     58 H26         -1.9880     1.4090    -2.6830 ha         1 H6A       0.119000
     59 H27         -2.4150     3.5040    -3.8900 ha         1 H6A       0.106000
     60 H28         -2.6380     5.6360    -2.6510 ha         1 H6A       0.103000
     61 H29         -2.4380     5.6460    -0.1820 ha         1 H6A       0.106000
     62 H30         -2.0110     3.5410     1.0290 ha         1 H6A       0.119000
     63 C21         -3.9580     0.4150     0.3950 c3         1 H6A       0.160600
     64 H16         -5.8640    -2.4930    -1.4950 h1         1 H6A       0.023950
     65 H17         -6.6520    -2.7220     0.0640 h1         1 H6A       0.023950
@<TRIPOS>BOND
     1     1     2 1   
     2     1    19 1   
     3     1    20 1   
     4     2     3 ar  
     5     2    15 ar  
     6     3     4 ar  
     7     3    36 1   
     8     4    16 ar  
     9     4    37 1   
    10     5    15 ar  
    11     5    16 ar  
    12     5    17 1   
    13     6     7 1   
    14     6    13 2   
    15     6    17 1   
    16     7     8 ar  
    17     7    12 ar  
    18     8     9 ar  
    19     8    38 1   
    20     9    10 ar  
    21     9    39 1   
    22    10    11 ar  
    23    10    40 1   
    24    11    12 ar  
    25    11    41 1   
    26    12    42 1   
    27    13    14 1   
    28    13    21 1   
    29    14    18 2   
    30    14    43 1   
    31    15    44 1   
    32    17    18 1   
    33    21    28 1   
    34    21    35 1   
    35    21    45 1   
    36    22    34 1   
    37    22    48 1   
    38    22    49 1   
    39    22    63 1   
    40    23    24 1   
    41    23    34 1   
    42    23    64 1   
    43    23    65 1   
    44    24    25 1   
    45    24    50 1   
    46    24    51 1   
    47    25    26 1   
    48    25    52 1   
    49    25    53 1   
    50    26    27 1   
    51    26    54 1   
    52    26    55 1   
    53    27    34 1   
    54    27    56 1   
    55    27    57 1   
    56    28    29 ar  
    57    28    33 ar  
    58    29    30 ar  
    59    29    58 1   
    60    30    31 ar  
    61    30    59 1   
    62    31    32 ar  
    63    31    60 1   
    64    32    33 ar  
    65    32    61 1   
    66    33    62 1   
    67    35    63 1   
    68    46    63 1   
    69    47    63 1   
@<TRIPOS>SUBSTRUCTURE
     1 H6A         1 TEMP              0 ****  ****    0 ROOT
