@<TRIPOS>MOLECULE
H6A
   65    69     1     0     0
SMALL
No Charge or Current Charge


@<TRIPOS>ATOM
      1 C02          5.3920    -3.2180     0.2010 c          1 H6A       0.715600
      2 C04          4.9130    -1.8230    -0.1570 ca         1 H6A      -0.108600
      3 C05          5.8080    -0.7390    -0.2690 ca         1 H6A      -0.130000
      4 C06          5.3150     0.5300    -0.6030 ca         1 H6A       0.306900
      5 C08          3.1120    -0.2440    -0.7240 ca         1 H6A       0.387500
      6 C10          0.9250     0.7350    -0.1570 cc         1 H6A      -0.062000
      7 C11          1.2260     1.4570     1.0780 ca         1 H6A       0.003000
      8 C12          0.8830     2.8160     1.2130 ca         1 H6A      -0.080000
      9 C13          1.1700     3.5090     2.4020 ca         1 H6A      -0.120500
     10 C14          1.8090     2.8470     3.4640 ca         1 H6A      -0.114000
     11 C15          2.1640     1.4940     3.3330 ca         1 H6A      -0.120500
     12 C16          1.8760     0.8020     2.1440 ca         1 H6A      -0.080000
     13 C18         -0.3240     0.5910    -0.7040 cd         1 H6A      -0.219300
     14 C35         -0.1530    -0.2840    -1.8130 cd         1 H6A       0.257900
     15 C37          3.5470    -1.5480    -0.3950 ca         1 H6A      -0.101000
     16 N07          4.0070     0.7790    -0.8270 nb         1 H6A      -0.708000
     17 N09          1.7300    -0.0870    -0.9280 na         1 H6A       0.147300
     18 N36          1.0900    -0.7090    -1.9810 nc         1 H6A      -0.497800
     19 O01          6.5880    -3.3950     0.3850 o          1 H6A      -0.706000
     20 O03          4.5620    -4.1120     0.2920 o          1 H6A      -0.706000
     21 C19         -1.6370     1.1670    -0.2320 c3         1 H6A       0.304900
     22 C22         -4.9380    -0.6670    -0.3260 c3         1 H6A       0.177800
     23 C24         -5.4730    -3.0740    -0.4470 c6         1 H6A       0.172800
     24 C25         -4.9960    -4.5090    -0.1150 c6         1 H6A      -0.076400
     25 C26         -4.8200    -4.6960     1.4090 c6         1 H6A      -0.073400
     26 C27         -3.8930    -3.5950     1.9720 c6         1 H6A      -0.076400
     27 C28         -4.3970    -2.1840     1.5800 c6         1 H6A       0.172800
     28 C29         -1.9780     2.5260    -0.8490 ca         1 H6A      -0.108300
     29 C30         -1.9650     2.7090    -2.2470 ca         1 H6A      -0.089500
     30 C31         -2.2830     3.9600    -2.8040 ca         1 H6A      -0.121500
     31 C32         -2.6200     5.0370    -1.9690 ca         1 H6A      -0.114000
     32 C33         -2.6430     4.8620    -0.5750 ca         1 H6A      -0.121500
     33 C34         -2.3250     3.6120    -0.0170 ca         1 H6A      -0.089500
     34 N23         -4.5490    -2.0430     0.1020 n3         1 H6A      -0.703600
     35 O20         -2.6710     0.2240    -0.5600 os         1 H6A      -0.426000
     36 H1           6.8740    -0.8680    -0.1010 ha         1 H6A       0.140000
     37 H2           5.9900     1.3800    -0.6950 h4         1 H6A      -0.000900
     38 H3           0.4100     3.3410     0.3880 ha         1 H6A       0.124000
     39 H4           0.9030     4.5590     2.4970 ha         1 H6A       0.105500
     40 H5           2.0330     3.3830     4.3840 ha         1 H6A       0.100000
     41 H6           2.6610     0.9810     4.1530 ha         1 H6A       0.105500
     42 H7           2.1470    -0.2470     2.0550 ha         1 H6A       0.124000
     43 H8          -0.9170    -0.6360    -2.4950 h4         1 H6A       0.041100
     44 H9           2.8110    -2.3450    -0.3220 ha         1 H6A       0.160000
     45 H11         -1.5750     1.2760     0.8590 h1         1 H6A       0.039700
     46 H12         -4.3730     1.4280    -0.3340 h1         1 H6A       0.019700
     47 H13         -3.8690     0.5670     1.1310 h1         1 H6A       0.019700
     48 H14         -5.9180    -0.4170     0.1020 h1         1 H6A       0.028700
     49 H15         -5.0620    -0.6500    -1.4170 h1         1 H6A       0.028700
     50 H18         -5.7190    -5.2400    -0.5020 hc         1 H6A       0.048700
     51 H19         -4.0440    -4.7060    -0.6270 hc         1 H6A       0.048700
     52 H20         -5.8000    -4.6460     1.9050 hc         1 H6A       0.033200
     53 H21         -4.4050    -5.6890     1.6240 hc         1 H6A       0.033200
     54 H22         -3.8330    -3.6780     3.0660 hc         1 H6A       0.048700
     55 H23         -2.8730    -3.7380     1.5910 hc         1 H6A       0.048700
     56 H24         -5.3580    -1.9930     2.0790 h1         1 H6A       0.023950
     57 H25         -3.6780    -1.4490     1.9680 h1         1 H6A       0.023950
     58 H26         -1.7110     1.8810    -2.9050 ha         1 H6A       0.119000
     59 H27         -2.2690     4.0930    -3.8840 ha         1 H6A       0.106000
     60 H28         -2.8670     6.0050    -2.4000 ha         1 H6A       0.103000
     61 H29         -2.9060     5.6950     0.0730 ha         1 H6A       0.106000
     62 H30         -2.3470     3.4880     1.0640 ha         1 H6A       0.119000
     63 C21         -3.9570     0.4840     0.0400 c3         1 H6A       0.160600
     64 H16         -5.5460    -2.9740    -1.5400 h1         1 H6A       0.023950
     65 H17         -6.4850    -2.9290    -0.0410 h1         1 H6A       0.023950
@<TRIPOS>BOND
     1     1     2 1   
     2     1    19 1   
     3     1    20 1   
     4     2     3 ar  
     5     2    15 ar  
     6     3     4 ar  
     7     3    36 1   
     8     4    16 ar  
     9     4    37 1   
    10     5    15 ar  
    11     5    16 ar  
    12     5    17 1   
    13     6     7 1   
    14     6    13 2   
    15     6    17 1   
    16     7     8 ar  
    17     7    12 ar  
    18     8     9 ar  
    19     8    38 1   
    20     9    10 ar  
    21     9    39 1   
    22    10    11 ar  
    23    10    40 1   
    24    11    12 ar  
    25    11    41 1   
    26    12    42 1   
    27    13    14 1   
    28    13    21 1   
    29    14    18 2   
    30    14    43 1   
    31    15    44 1   
    32    17    18 1   
    33    21    28 1   
    34    21    35 1   
    35    21    45 1   
    36    22    34 1   
    37    22    48 1   
    38    22    49 1   
    39    22    63 1   
    40    23    24 1   
    41    23    34 1   
    42    23    64 1   
    43    23    65 1   
    44    24    25 1   
    45    24    50 1   
    46    24    51 1   
    47    25    26 1   
    48    25    52 1   
    49    25    53 1   
    50    26    27 1   
    51    26    54 1   
    52    26    55 1   
    53    27    34 1   
    54    27    56 1   
    55    27    57 1   
    56    28    29 ar  
    57    28    33 ar  
    58    29    30 ar  
    59    29    58 1   
    60    30    31 ar  
    61    30    59 1   
    62    31    32 ar  
    63    31    60 1   
    64    32    33 ar  
    65    32    61 1   
    66    33    62 1   
    67    35    63 1   
    68    46    63 1   
    69    47    63 1   
@<TRIPOS>SUBSTRUCTURE
     1 H6A         1 TEMP              0 ****  ****    0 ROOT
