@<TRIPOS>MOLECULE
H6B
   26    27     1     0     0
SMALL
No Charge or Current Charge


@<TRIPOS>ATOM
      1 C1          -0.9250    -0.1720    -0.4600 c6         1 H6B      -0.165700
      2 C2          -0.5560     1.3400    -0.4700 c6         1 H6B       0.170300
      3 C3           0.9540     1.5500    -0.8330 c6         1 H6B       0.104300
      4 C4           1.8640     0.8790     0.2590 c6         1 H6B       0.217300
      5 C5           1.4690    -0.5810     0.6290 cx         1 H6B       0.050500
      6 C6           0.0500    -1.0470     0.3570 cx         1 H6B       0.149500
      7 N1           1.2000    -1.6160    -0.3980 np         1 H6B      -0.670600
      8 O1           1.2550     1.0710    -2.1610 oh         1 H6B      -0.647000
      9 O2           1.7990     1.6490     1.4790 oh         1 H6B      -0.717000
     10 O3          -0.8160     1.9480     0.8010 oh         1 H6B      -0.684000
     11 C7          -2.3990    -0.4150    -0.0720 c          1 H6B       0.737000
     12 O4          -2.6810    -0.4650     1.1180 o          1 H6B      -0.731500
     13 O5          -3.1040    -0.9520    -0.9150 o          1 H6B      -0.731500
     14 C8           1.6020    -2.9970    -0.0660 c3         1 H6B       0.140100
     15 H1          -0.8480    -0.4830    -1.5100 hc         1 H6B       0.061700
     16 H2          -1.1720     1.8350    -1.2360 h1         1 H6B       0.044700
     17 H3           1.1570     2.6310    -0.8160 h1         1 H6B      -0.008300
     18 H4           2.9010     0.8650    -0.1100 h1         1 H6B       0.036700
     19 H5           1.9500    -0.9310     1.5430 h1         1 H6B       0.070700
     20 H6          -0.4250    -1.6850     1.1050 h1         1 H6B       0.106700
     21 H8           0.7580     1.6370    -2.7910 ho         1 H6B       0.439000
     22 H9           2.6160     1.4360     1.9880 ho         1 H6B       0.484000
     23 H10          0.0690     1.9330     1.2570 ho         1 H6B       0.471000
     24 H12          1.4590    -3.2120     1.0020 h1         1 H6B       0.023700
     25 H13          1.0060    -3.7140    -0.6450 h1         1 H6B       0.023700
     26 H14          2.6610    -3.1530    -0.3110 h1         1 H6B       0.023700
@<TRIPOS>BOND
     1     1     2 1   
     2     1     6 1   
     3     1    11 1   
     4     1    15 1   
     5     2     3 1   
     6     2    10 1   
     7     2    16 1   
     8     3     4 1   
     9     3     8 1   
    10     3    17 1   
    11     4     5 1   
    12     4     9 1   
    13     4    18 1   
    14     5     6 1   
    15     5     7 1   
    16     5    19 1   
    17     6     7 1   
    18     6    20 1   
    19     7    14 1   
    20     8    21 1   
    21     9    22 1   
    22    10    23 1   
    23    11    12 1   
    24    11    13 1   
    25    14    24 1   
    26    14    25 1   
    27    14    26 1   
@<TRIPOS>SUBSTRUCTURE
     1 H6B         1 TEMP              0 ****  ****    0 ROOT
