@<TRIPOS>MOLECULE
H6B
   26    27     1     0     0
SMALL
bcc


@<TRIPOS>ATOM
      1 C1          -0.8830    -0.2500    -0.4970 c6         1 H6B      -0.165700
      2 C2          -0.5020     1.2200    -0.3950 c6         1 H6B       0.147100
      3 C3           0.9800     1.4510    -0.7170 c6         1 H6B       0.081100
      4 C4           1.9260     0.7210     0.2520 c6         1 H6B       0.194100
      5 C5           1.4020    -0.6230     0.7000 cx         1 H6B       0.050500
      6 C6           0.0420    -1.0970     0.3440 cx         1 H6B       0.149500
      7 N1           1.2210    -1.6390    -0.3030 np         1 H6B      -0.670600
      8 O1           1.2850     1.0360    -2.0280 oh         1 H6B      -0.584800
      9 O2           2.1260     1.4810     1.4280 oh         1 H6B      -0.594800
     10 O3          -0.8100     1.6420     0.9160 oh         1 H6B      -0.561800
     11 C7          -2.3880    -0.4350    -0.1850 c          1 H6B       0.947600
     12 O4          -2.7170    -1.2850     0.6650 o          1 H6B      -0.836800
     13 O5          -3.1640     0.2800    -0.8490 o          1 H6B      -0.836800
     14 C8           1.6090    -2.9800     0.0740 c3         1 H6B       0.140100
     15 H1          -0.7510    -0.5450    -1.5440 hc         1 H6B       0.061700
     16 H2          -1.0950     1.7840    -1.1300 h1         1 H6B       0.044700
     17 H3           1.1830     2.5320    -0.6130 h1         1 H6B      -0.008300
     18 H4           2.8810     0.5690    -0.2720 h1         1 H6B       0.036700
     19 H5           1.8050    -0.9510     1.6590 h1         1 H6B       0.070700
     20 H6          -0.4410    -1.7370     1.0770 h1         1 H6B       0.106700
     21 H8           0.6920     1.4930    -2.6330 ho         1 H6B       0.400000
     22 H9           2.5990     2.2840     1.1880 ho         1 H6B       0.385000
     23 H10         -0.3100     2.4380     1.1220 ho         1 H6B       0.372000
     24 H12          1.4080    -3.2170     1.1280 h1         1 H6B       0.023700
     25 H13          1.0710    -3.7040    -0.5400 h1         1 H6B       0.023700
     26 H14          2.6770    -3.1180    -0.1020 h1         1 H6B       0.023700
@<TRIPOS>BOND
     1     1     2 1   
     2     1     6 1   
     3     1    11 1   
     4     1    15 1   
     5     2     3 1   
     6     2    10 1   
     7     2    16 1   
     8     3     4 1   
     9     3     8 1   
    10     3    17 1   
    11     4     5 1   
    12     4     9 1   
    13     4    18 1   
    14     5     6 1   
    15     5     7 1   
    16     5    19 1   
    17     6     7 1   
    18     6    20 1   
    19     7    14 1   
    20     8    21 1   
    21     9    22 1   
    22    10    23 1   
    23    11    12 1   
    24    11    13 1   
    25    14    24 1   
    26    14    25 1   
    27    14    26 1   
@<TRIPOS>SUBSTRUCTURE
     1 H6B         1 TEMP              0 ****  ****    0 ROOT
