@<TRIPOS>MOLECULE
H6D
   32    33     1     0     0
SMALL
bcc


@<TRIPOS>ATOM
      1 C1           4.8770     1.7670    -0.6320 c3         1 H6D      -0.061800
      2 S2           4.1890     1.2260     0.9500 sx         1 H6D       0.231200
      3 O3           3.5470     2.4260     1.5780 o          1 H6D      -0.474200
      4 C4           2.8540     0.2390     0.2310 cc         1 H6D       0.086700
      5 C5           1.5840     0.8070     0.1630 cc         1 H6D      -0.214000
      6 C6           0.5630     0.0460    -0.3520 cd         1 H6D       0.154400
      7 N7           0.8110    -1.2160    -0.7590 ns         1 H6D      -0.416100
      8 C8           2.0300    -1.8710    -0.7040 c          1 H6D       0.710700
      9 O9           2.1520    -3.0190    -1.0890 o          1 H6D      -0.600500
     10 C10          3.0940    -1.0540    -0.1630 cd         1 H6D      -0.077900
     11 C11          4.3760    -1.6500    -0.0640 ch         1 H6D       0.202500
     12 N12          5.4220    -2.1280     0.0180 n1         1 H6D      -0.343800
     13 C13         -0.8130     0.5440    -0.4670 ca         1 H6D      -0.083800
     14 C14         -1.0420     1.8720    -0.8250 ca         1 H6D      -0.082000
     15 C15         -2.3370     2.3450    -0.9460 ca         1 H6D      -0.118000
     16 C16         -3.4180     1.5100    -0.7000 ca         1 H6D      -0.098000
     17 C17         -3.1760     0.1970    -0.3330 ca         1 H6D       0.094100
     18 C18         -1.8920    -0.3020    -0.2200 ca         1 H6D      -0.104000
     19 O19         -4.2450    -0.6610    -0.1260 os         1 H6D      -0.378900
     20 C20         -4.7660    -0.7240     1.1090 c3         1 H6D       0.856700
     21 F21         -5.2630     0.4450     1.5160 f          1 H6D      -0.226300
     22 F22         -5.7460    -1.6100     1.0850 f          1 H6D      -0.226300
     23 F23         -3.8730    -1.1030     2.0220 f          1 H6D      -0.226300
     24 H1           5.6980     2.4430    -0.3980 h1         1 H6D       0.085367
     25 H1A          5.2630     0.9120    -1.1840 h1         1 H6D       0.085367
     26 H1B          4.1120     2.2840    -1.2080 h1         1 H6D       0.085367
     27 H5           1.3980     1.8050     0.5320 ha         1 H6D       0.184000
     28 HN7          0.0570    -1.7480    -1.1780 hn         1 H6D       0.335500
     29 H14         -0.2100     2.5300    -1.0410 ha         1 H6D       0.152000
     30 H15         -2.5110     3.3700    -1.2430 ha         1 H6D       0.150000
     31 H16         -4.4300     1.8750    -0.8110 ha         1 H6D       0.160000
     32 H18         -1.7440    -1.3350     0.0710 ha         1 H6D       0.157000
@<TRIPOS>BOND
     1     1     2 1   
     2     1    24 1   
     3     1    25 1   
     4     1    26 1   
     5     2     3 2   
     6     2     4 1   
     7     4     5 1   
     8     4    10 2   
     9     5     6 2   
    10     5    27 1   
    11     6     7 1   
    12     6    13 1   
    13     7     8 1   
    14     7    28 1   
    15     8     9 2   
    16     8    10 1   
    17    10    11 1   
    18    11    12 3   
    19    13    14 ar  
    20    13    18 ar  
    21    14    15 ar  
    22    14    29 1   
    23    15    16 ar  
    24    15    30 1   
    25    16    17 ar  
    26    16    31 1   
    27    17    18 ar  
    28    17    19 1   
    29    18    32 1   
    30    19    20 1   
    31    20    21 1   
    32    20    22 1   
    33    20    23 1   
@<TRIPOS>SUBSTRUCTURE
     1 H6D         1 TEMP              0 ****  ****    0 ROOT
