@<TRIPOS>MOLECULE
H6D
   32    33     1     0     0
SMALL
No Charge or Current Charge


@<TRIPOS>ATOM
      1 C1           4.7700     1.9160    -1.5050 c3         1 H6D      -0.061800
      2 S2           4.6750     1.3490     0.2580 sx         1 H6D       0.258000
      3 O3           4.1950     2.5190     1.1020 o          1 H6D      -0.501000
      4 C4           3.2040     0.2840     0.0300 cc         1 H6D       0.086700
      5 C5           1.8660     0.8150     0.0980 cc         1 H6D      -0.264000
      6 C6           0.7470     0.0070     0.0150 cd         1 H6D       0.154400
      7 N7           0.9640    -1.3480    -0.1090 ns         1 H6D      -0.349100
      8 C8           2.1750    -1.9890    -0.1290 c          1 H6D       0.568200
      9 O9           2.2280    -3.2090    -0.2170 o          1 H6D      -0.525000
     10 C10          3.3510    -1.0910    -0.0350 cd         1 H6D      -0.077900
     11 C11          4.6110    -1.7470    -0.0340 ch         1 H6D       0.291700
     12 N12          5.6630    -2.2530    -0.0340 n1         1 H6D      -0.433000
     13 C13         -0.6590     0.5040     0.0540 ca         1 H6D      -0.083800
     14 C14         -0.9580     1.8840     0.1690 ca         1 H6D      -0.064000
     15 C15         -2.2870     2.3360     0.2050 ca         1 H6D      -0.100000
     16 C16         -3.3520     1.4270     0.1270 ca         1 H6D      -0.080000
     17 C17         -3.0840     0.0470     0.0120 ca         1 H6D       0.094100
     18 C18         -1.7510    -0.3990    -0.0240 ca         1 H6D      -0.086000
     19 O19         -4.0740    -0.9180    -0.0710 os         1 H6D      -0.402100
     20 C20         -5.4880    -0.6320    -0.0490 c3         1 H6D       0.516000
     21 F21         -5.8640     0.1570    -1.0820 f          1 H6D      -0.105000
     22 F22         -6.2050    -1.7740    -0.1460 f          1 H6D      -0.105000
     23 F23         -5.8670    -0.0260     1.1000 f          1 H6D      -0.105000
     24 H1           5.5590     2.6740    -1.5830 h1         1 H6D       0.085367
     25 H1A          5.0080     1.0520    -2.1370 h1         1 H6D       0.085367
     26 H1B          3.8020     2.3440    -1.7900 h1         1 H6D       0.085367
     27 H5           1.7840     1.8880     0.2140 ha         1 H6D       0.234000
     28 HN7          0.1740    -1.9740    -0.1780 hn         1 H6D       0.335500
     29 H14         -0.1760     2.6330     0.2310 ha         1 H6D       0.134000
     30 H15         -2.4930     3.4010     0.2930 ha         1 H6D       0.132000
     31 H16         -4.3660     1.8140     0.1580 ha         1 H6D       0.142000
     32 H18         -1.5920    -1.4680    -0.1120 ha         1 H6D       0.139000
@<TRIPOS>BOND
     1     1     2 1   
     2     1    24 1   
     3     1    25 1   
     4     1    26 1   
     5     2     3 2   
     6     2     4 1   
     7     4     5 1   
     8     4    10 2   
     9     5     6 2   
    10     5    27 1   
    11     6     7 1   
    12     6    13 1   
    13     7     8 1   
    14     7    28 1   
    15     8     9 2   
    16     8    10 1   
    17    10    11 1   
    18    11    12 3   
    19    13    14 ar  
    20    13    18 ar  
    21    14    15 ar  
    22    14    29 1   
    23    15    16 ar  
    24    15    30 1   
    25    16    17 ar  
    26    16    31 1   
    27    17    18 ar  
    28    17    19 1   
    29    18    32 1   
    30    19    20 1   
    31    20    21 1   
    32    20    22 1   
    33    20    23 1   
@<TRIPOS>SUBSTRUCTURE
     1 H6D         1 TEMP              0 ****  ****    0 ROOT
