@<TRIPOS>MOLECULE
H6E
   47    49     1     0     0
SMALL
No Charge or Current Charge


@<TRIPOS>ATOM
      1 C4          -1.5590     0.1650     0.3200 c3         1 H6E      -0.339400
      2 C5          -3.0340     0.4410    -0.1150 c6         1 H6E      -0.063700
      3 C6          -3.6690     1.5280     0.7940 c6         1 H6E      -0.069400
      4 C7          -5.1550     1.7640     0.4290 c6         1 H6E      -0.113400
      5 C8          -5.9280     0.4250     0.4180 c6         1 H6E       0.152600
      6 O9          -5.2820    -0.5030    -0.4780 os         1 H6E      -0.442000
      7 C12          1.2340    -1.6290     1.2230 c5         1 H6E       0.213800
      8 C15          4.0100     1.0350     1.1970 c6         1 H6E      -0.062900
      9 C16          4.5630     1.9310     0.0580 c6         1 H6E      -0.074400
     10 C17          5.3660     1.0970    -0.9670 c6         1 H6E      -0.075400
     11 C18          4.5240    -0.0810    -1.5100 c6         1 H6E      -0.074400
     12 C19          3.9630    -0.9480    -0.3530 c6         1 H6E      -0.062900
     13 S2          -0.5570    -0.8950    -0.7470 s6         1 H6E       1.203100
     14 O3          -0.4130    -0.2770    -2.0690 o          1 H6E      -0.530000
     15 C10         -3.9270    -0.8360    -0.1040 c6         1 H6E       0.152600
     16 N11          1.0000    -0.8800    -0.0320 n3         1 H6E      -0.757500
     17 C13          2.5300    -0.9980     1.8200 c5         1 H6E      -0.092400
     18 C14          3.1020    -0.1180     0.6650 c5         1 H6E      -0.050000
     19 C20          1.7440     0.3860     0.0890 c5         1 H6E       0.215800
     20 H1          -1.0200     1.1170     0.3640 h1         1 H6E       0.086700
     21 H2          -1.5410    -0.2940     1.3130 h1         1 H6E       0.086700
     22 H3          -2.9990     0.8280    -1.1440 hc         1 H6E       0.079700
     23 H4          -3.5970     1.2200     1.8470 hc         1 H6E       0.040200
     24 H5          -3.1110     2.4710     0.7070 hc         1 H6E       0.040200
     25 H6          -5.6160     2.4570     1.1470 hc         1 H6E       0.051200
     26 H7          -5.2280     2.2380    -0.5590 hc         1 H6E       0.051200
     27 H8          -5.9610    -0.0070     1.4290 h1         1 H6E       0.044200
     28 H9          -6.9620     0.5900     0.0810 h1         1 H6E       0.044200
     29 H11          1.3610    -2.7010     1.0200 h1         1 H6E       0.058200
     30 H12          4.8490     0.6100     1.7660 hc         1 H6E       0.043950
     31 H13          3.4470     1.6580     1.9060 hc         1 H6E       0.043950
     32 H14          3.7370     2.4500    -0.4480 hc         1 H6E       0.042450
     33 H15          5.2060     2.7140     0.4820 hc         1 H6E       0.042450
     34 H16          5.6940     1.7370    -1.7970 hc         1 H6E       0.040700
     35 H17          6.2780     0.7100    -0.4920 hc         1 H6E       0.040700
     36 H18          3.7020     0.3000    -2.1310 hc         1 H6E       0.042450
     37 H19          5.1440    -0.7030    -2.1710 hc         1 H6E       0.042450
     38 H20          3.3800    -1.7780    -0.7750 hc         1 H6E       0.043950
     39 H21          4.8010    -1.4190     0.1790 hc         1 H6E       0.043950
     40 H22         -3.5450    -1.5770    -0.8200 h1         1 H6E       0.054700
     41 H23         -3.9270    -1.2950     0.8950 h1         1 H6E       0.054700
     42 H24          2.2770    -0.3880     2.6950 hc         1 H6E       0.053200
     43 H25          3.2390    -1.7590     2.1630 hc         1 H6E       0.053200
     44 H26          1.8610     0.8940    -0.8780 h1         1 H6E       0.057200
     45 H27          1.2490     1.0850     0.7790 h1         1 H6E       0.057200
     46 H10          0.4000    -1.5220     1.9310 h1         1 H6E       0.058200
     47 O1          -1.0370    -2.2770    -0.6490 o          1 H6E      -0.530000
@<TRIPOS>BOND
     1     1     2 1   
     2     1    13 1   
     3     1    20 1   
     4     1    21 1   
     5     2     3 1   
     6     2    15 1   
     7     2    22 1   
     8     3     4 1   
     9     3    23 1   
    10     3    24 1   
    11     4     5 1   
    12     4    25 1   
    13     4    26 1   
    14     5     6 1   
    15     5    27 1   
    16     5    28 1   
    17     6    15 1   
    18     7    16 1   
    19     7    17 1   
    20     7    29 1   
    21     7    46 1   
    22     8     9 1   
    23     8    18 1   
    24     8    30 1   
    25     8    31 1   
    26     9    10 1   
    27     9    32 1   
    28     9    33 1   
    29    10    11 1   
    30    10    34 1   
    31    10    35 1   
    32    11    12 1   
    33    11    36 1   
    34    11    37 1   
    35    12    18 1   
    36    12    38 1   
    37    12    39 1   
    38    13    14 2   
    39    13    16 1   
    40    13    47 2   
    41    15    40 1   
    42    15    41 1   
    43    16    19 1   
    44    17    18 1   
    45    17    42 1   
    46    17    43 1   
    47    18    19 1   
    48    19    44 1   
    49    19    45 1   
@<TRIPOS>SUBSTRUCTURE
     1 H6E         1 TEMP              0 ****  ****    0 ROOT
