@<TRIPOS>MOLECULE
H6E
   47    49     1     0     0
SMALL
abcg2


@<TRIPOS>ATOM
      1 C4          -1.5550     0.0590     0.4730 c3         1 H6E      -0.339400
      2 C5          -2.9430     0.4710    -0.0040 c6         1 H6E      -0.063700
      3 C6          -3.5430     1.4370     1.0220 c6         1 H6E      -0.069400
      4 C7          -4.9740     1.7950     0.6430 c6         1 H6E      -0.113400
      5 C8          -5.7820     0.5280     0.4270 c6         1 H6E       0.152600
      6 O9          -5.1850    -0.3080    -0.5420 os         1 H6E      -0.442000
      7 C12          1.2730    -1.7160     1.0440 c5         1 H6E       0.213800
      8 C15          3.6900     1.1870     1.0520 c6         1 H6E      -0.062900
      9 C16          4.3850     1.9590    -0.0640 c6         1 H6E      -0.074400
     10 C17          5.3730     1.0730    -0.8130 c6         1 H6E      -0.075400
     11 C18          4.6970    -0.1850    -1.3440 c6         1 H6E      -0.074400
     12 C19          3.9730    -0.9480    -0.2380 c6         1 H6E      -0.062900
     13 S2          -0.6190    -0.9290    -0.7000 s6         1 H6E       1.203100
     14 O3          -0.6260    -0.2280    -1.9770 o          1 H6E      -0.530000
     15 C10         -3.8850    -0.7190    -0.1890 c6         1 H6E       0.152600
     16 N11          0.9200    -0.9380    -0.1560 n3         1 H6E      -0.757500
     17 C13          2.3520    -0.8640     1.7000 c5         1 H6E      -0.092400
     18 C14          2.9870    -0.0730     0.5510 c5         1 H6E      -0.050000
     19 C20          1.7490     0.2640    -0.2900 c5         1 H6E       0.215800
     20 H1          -0.9560     0.9530     0.6630 h1         1 H6E       0.086700
     21 H2          -1.6010    -0.5110     1.4040 h1         1 H6E       0.086700
     22 H3          -2.8480     0.9970    -0.9590 hc         1 H6E       0.079700
     23 H4          -3.5370     0.9630     2.0100 hc         1 H6E       0.040200
     24 H5          -2.9250     2.3340     1.0970 hc         1 H6E       0.040200
     25 H6          -5.4410     2.3950     1.4280 hc         1 H6E       0.051200
     26 H7          -4.9820     2.3980    -0.2690 hc         1 H6E       0.051200
     27 H8          -5.8850    -0.0080     1.3830 h1         1 H6E       0.044200
     28 H9          -6.7880     0.7570     0.0690 h1         1 H6E       0.044200
     29 H11          1.6420    -2.7000     0.7520 h1         1 H6E       0.058200
     30 H12          4.4350     0.9000     1.8030 hc         1 H6E       0.043950
     31 H13          2.9660     1.8260     1.5670 hc         1 H6E       0.043950
     32 H14          3.6410     2.3560    -0.7640 hc         1 H6E       0.042450
     33 H15          4.8990     2.8270     0.3550 hc         1 H6E       0.042450
     34 H16          5.8340     1.6280    -1.6340 hc         1 H6E       0.040700
     35 H17          6.1860     0.7890    -0.1350 hc         1 H6E       0.040700
     36 H18          3.9920     0.0860    -2.1360 hc         1 H6E       0.042450
     37 H19          5.4340    -0.8410    -1.8140 hc         1 H6E       0.042450
     38 H20          3.4570    -1.8150    -0.6610 hc         1 H6E       0.043950
     39 H21          4.7130    -1.3470     0.4640 hc         1 H6E       0.043950
     40 H22         -3.5440    -1.3750    -0.9910 h1         1 H6E       0.054700
     41 H23         -3.9010    -1.3120     0.7390 h1         1 H6E       0.054700
     42 H24          1.8940    -0.1700     2.4110 hc         1 H6E       0.053200
     43 H25          3.0760    -1.4680     2.2490 hc         1 H6E       0.053200
     44 H26          1.9700     0.4600    -1.3380 h1         1 H6E       0.057200
     45 H27          1.2530     1.1530     0.1210 h1         1 H6E       0.057200
     46 H10          0.4220    -1.8700     1.7110 h1         1 H6E       0.058200
     47 O1          -1.1010    -2.3040    -0.6430 o          1 H6E      -0.530000
@<TRIPOS>BOND
     1     1     2 1   
     2     1    13 1   
     3     1    20 1   
     4     1    21 1   
     5     2     3 1   
     6     2    15 1   
     7     2    22 1   
     8     3     4 1   
     9     3    23 1   
    10     3    24 1   
    11     4     5 1   
    12     4    25 1   
    13     4    26 1   
    14     5     6 1   
    15     5    27 1   
    16     5    28 1   
    17     6    15 1   
    18     7    16 1   
    19     7    17 1   
    20     7    29 1   
    21     7    46 1   
    22     8     9 1   
    23     8    18 1   
    24     8    30 1   
    25     8    31 1   
    26     9    10 1   
    27     9    32 1   
    28     9    33 1   
    29    10    11 1   
    30    10    34 1   
    31    10    35 1   
    32    11    12 1   
    33    11    36 1   
    34    11    37 1   
    35    12    18 1   
    36    12    38 1   
    37    12    39 1   
    38    13    14 2   
    39    13    16 1   
    40    13    47 2   
    41    15    40 1   
    42    15    41 1   
    43    16    19 1   
    44    17    18 1   
    45    17    42 1   
    46    17    43 1   
    47    18    19 1   
    48    19    44 1   
    49    19    45 1   
@<TRIPOS>SUBSTRUCTURE
     1 H6E         1 TEMP              0 ****  ****    0 ROOT
