@<TRIPOS>MOLECULE
H6F
   79    81     1     0     0
SMALL
abcg2


@<TRIPOS>ATOM
      1 O37        -21.2150    14.6280   -21.9130 o          1 H6F      -0.606100
      2 C26        -20.1250    15.1200   -21.6610 c          1 H6F       0.620700
      3 C27        -19.2480    14.5540   -20.5900 ca         1 H6F      -0.157600
      4 C36        -17.8370    14.6750   -20.6140 ca         1 H6F      -0.092000
      5 C35        -17.0780    14.1370   -19.6130 ca         1 H6F      -0.102000
      6 C28        -19.8500    13.8810   -19.5570 ca         1 H6F      -0.035000
      7 C29        -19.0910    13.3310   -18.5020 ca         1 H6F      -0.051000
      8 C30        -19.7020    12.6520   -17.4210 ca         1 H6F      -0.089000
      9 C31        -18.9430    12.1250   -16.4140 ca         1 H6F      -0.110000
     10 C32        -17.5370    12.2500   -16.4410 ca         1 H6F      -0.096000
     11 C33        -16.9190    12.9000   -17.4740 ca         1 H6F      -0.104000
     12 C34        -17.6790    13.4580   -18.5280 ca         1 H6F      -0.021000
     13 N25        -19.6370    16.2020   -22.2970 ns         1 H6F      -0.496900
     14 C21        -20.3510    16.9150   -23.3320 c3         1 H6F       0.036700
     15 C20        -19.4590    16.9510   -24.5690 c          1 H6F       0.591100
     16 O38        -18.3550    17.4760   -24.5350 o          1 H6F      -0.619100
     17 C22        -20.7300    18.3390   -22.8930 c3         1 H6F      -0.071700
     18 C24        -21.5810    18.3080   -21.6300 c3         1 H6F      -0.093100
     19 C23        -21.4650    19.0670   -24.0130 c3         1 H6F      -0.093100
     20 N19        -19.9570    16.3630   -25.6670 ns         1 H6F      -0.478900
     21 C14        -19.2710    16.3980   -26.9360 c3         1 H6F       0.037700
     22 C13        -19.4470    17.7780   -27.5700 c          1 H6F       0.582100
     23 O39        -20.5390    18.3200   -27.6050 o          1 H6F      -0.606100
     24 C15        -19.8290    15.3350   -27.8810 c3         1 H6F      -0.084400
     25 C16        -19.6680    13.8920   -27.3960 c3         1 H6F      -0.059700
     26 C17        -18.2080    13.5160   -27.1690 c3         1 H6F      -0.090600
     27 C18        -20.3170    12.9480   -28.4040 c3         1 H6F      -0.090600
     28 C07        -18.6330    21.4190   -24.5850 c6         1 H6F      -0.095400
     29 C03        -18.2660    19.6270   -28.6890 c3         1 H6F      -0.019300
     30 C06        -18.6470    21.1870   -26.0860 c6         1 H6F      -0.075400
     31 C10        -16.1200    21.4090   -25.9920 c          1 H6F       0.569000
     32 C04        -17.1840    20.5010   -28.0620 c3         1 H6F      -0.070400
     33 C02        -18.1150    19.4780   -30.1890 c          1 H6F       0.560900
     34 C05        -17.3050    20.6230   -26.5430 c6         1 H6F      -0.141700
     35 C08        -17.5880    22.4590   -24.2410 c6         1 H6F       0.116000
     36 N12        -18.3290    18.3120   -28.0950 ns         1 H6F      -0.495900
     37 N09        -16.3300    22.1710   -24.9050 ns         1 H6F      -0.508900
     38 H37        -17.3400    15.1660   -21.4410 ha         1 H6F       0.118000
     39 H36        -15.9980    14.2240   -19.6470 ha         1 H6F       0.118000
     40 H12        -20.9280    13.7750   -19.5320 ha         1 H6F       0.134000
     41 H32        -20.7820    12.5570   -17.4040 ha         1 H6F       0.118000
     42 H33        -19.4170    11.6080   -15.5890 ha         1 H6F       0.116000
     43 H34        -16.9490    11.8270   -15.6380 ha         1 H6F       0.115000
     44 H35        -15.8400    12.9950   -17.4960 ha         1 H6F       0.116000
     45 H40        -18.7810    16.6250   -21.9730 hn         1 H6F       0.329500
     46 H7         -21.2680    16.3610   -23.5410 h1         1 H6F       0.090700
     47 H8         -19.8020    18.8780   -22.6720 hc         1 H6F       0.058700
     48 H9         -21.0620    17.8420   -20.7930 hc         1 H6F       0.040867
     49 H10        -21.8430    19.3230   -21.3280 hc         1 H6F       0.040867
     50 H11        -22.5130    17.7620   -21.7970 hc         1 H6F       0.040867
     51 H29        -21.7410    20.0720   -23.6920 hc         1 H6F       0.040867
     52 H30        -20.8630    19.1720   -24.9150 hc         1 H6F       0.040867
     53 H31        -22.3820    18.5400   -24.2840 hc         1 H6F       0.040867
     54 H39        -20.9040    16.0170   -25.6500 hn         1 H6F       0.332500
     55 H24        -18.2110    16.2070   -26.7580 h1         1 H6F       0.081700
     56 H2         -19.3250    15.4450   -28.8460 hc         1 H6F       0.056700
     57 H3         -20.8880    15.5430   -28.0590 hc         1 H6F       0.056700
     58 H25        -20.2010    13.7820   -26.4460 hc         1 H6F       0.053700
     59 H4         -17.7450    14.1050   -26.3770 hc         1 H6F       0.036200
     60 H5         -18.1200    12.4670   -26.8820 hc         1 H6F       0.036200
     61 H6         -17.6200    13.6600   -28.0790 hc         1 H6F       0.036200
     62 H26        -20.2580    11.9120   -28.0650 hc         1 H6F       0.036200
     63 H27        -21.3700    13.1890   -28.5550 hc         1 H6F       0.036200
     64 H28        -19.8190    13.0090   -29.3740 hc         1 H6F       0.036200
     65 H20        -19.6060    21.7600   -24.2300 hc         1 H6F       0.057200
     66 H21        -18.4140    20.4790   -24.0710 hc         1 H6F       0.057200
     67 H14        -19.2530    20.0840   -28.5490 h1         1 H6F       0.099700
     68 H18        -18.8570    22.1280   -26.6070 hc         1 H6F       0.052200
     69 H19        -19.4520    20.5000   -26.3470 hc         1 H6F       0.052200
     70 H15        -16.2040    20.0960   -28.3190 hc         1 H6F       0.072700
     71 H16        -17.2420    21.4930   -28.5150 hc         1 H6F       0.072700
     72 H13        -18.7250    18.6610   -30.6170 h4         1 H6F      -0.005800
     73 H17        -17.2020    19.6210   -26.1060 hc         1 H6F       0.085700
     74 H22        -17.9440    23.4510   -24.5360 h1         1 H6F       0.037700
     75 H23        -17.4100    22.4900   -23.1650 h1         1 H6F       0.037700
     76 H1         -17.4580    17.8130   -27.9850 hn         1 H6F       0.324500
     77 H38        -15.5210    22.6770   -24.5750 hn         1 H6F       0.313500
     78 O01        -17.4180    20.1710   -30.8810 o          1 H6F      -0.498100
     79 O11        -15.0060    21.3150   -26.4940 o          1 H6F      -0.578000
@<TRIPOS>BOND
     1     1     2 2   
     2     2     3 1   
     3     2    13 1   
     4     3     4 ar  
     5     3     6 ar  
     6     4     5 ar  
     7     4    38 1   
     8     5    12 ar  
     9     5    39 1   
    10     6     7 ar  
    11     6    40 1   
    12     7     8 ar  
    13     7    12 ar  
    14     8     9 ar  
    15     8    41 1   
    16     9    10 ar  
    17     9    42 1   
    18    10    11 ar  
    19    10    43 1   
    20    11    12 ar  
    21    11    44 1   
    22    13    14 1   
    23    13    45 1   
    24    14    15 1   
    25    14    17 1   
    26    14    46 1   
    27    15    16 2   
    28    15    20 1   
    29    17    18 1   
    30    17    19 1   
    31    17    47 1   
    32    18    48 1   
    33    18    49 1   
    34    18    50 1   
    35    19    51 1   
    36    19    52 1   
    37    19    53 1   
    38    20    21 1   
    39    20    54 1   
    40    21    22 1   
    41    21    24 1   
    42    21    55 1   
    43    22    23 2   
    44    22    36 1   
    45    24    25 1   
    46    24    56 1   
    47    24    57 1   
    48    25    26 1   
    49    25    27 1   
    50    25    58 1   
    51    26    59 1   
    52    26    60 1   
    53    26    61 1   
    54    27    62 1   
    55    27    63 1   
    56    27    64 1   
    57    28    30 1   
    58    28    35 1   
    59    28    65 1   
    60    28    66 1   
    61    29    32 1   
    62    29    33 1   
    63    29    36 1   
    64    29    67 1   
    65    30    34 1   
    66    30    68 1   
    67    30    69 1   
    68    31    34 1   
    69    31    37 1   
    70    31    79 2   
    71    32    34 1   
    72    32    70 1   
    73    32    71 1   
    74    33    72 1   
    75    33    78 2   
    76    34    73 1   
    77    35    37 1   
    78    35    74 1   
    79    35    75 1   
    80    36    76 1   
    81    37    77 1   
@<TRIPOS>SUBSTRUCTURE
     1 H6F         1 TEMP              0 ****  ****    0 ROOT
