@<TRIPOS>MOLECULE
H6F
   79    81     1     0     0
SMALL
No Charge or Current Charge


@<TRIPOS>ATOM
      1 O37        -21.4630    15.0800   -21.1390 o          1 H6F      -0.606100
      2 C26        -20.2430    15.0400   -21.0580 c          1 H6F       0.620700
      3 C27        -19.5300    14.1580   -20.0530 ca         1 H6F      -0.157600
      4 C36        -18.1170    14.1130   -19.9520 ca         1 H6F      -0.092000
      5 C35        -17.4940    13.2820   -19.0050 ca         1 H6F      -0.102000
      6 C28        -20.2950    13.3500   -19.1800 ca         1 H6F      -0.035000
      7 C29        -19.6710    12.5180   -18.2320 ca         1 H6F      -0.051000
      8 C30        -20.4460    11.7180   -17.3690 ca         1 H6F      -0.089000
      9 C31        -19.8190    10.8880   -16.4240 ca         1 H6F      -0.110000
     10 C32        -18.4170    10.8550   -16.3370 ca         1 H6F      -0.096000
     11 C33        -17.6400    11.6510   -17.1960 ca         1 H6F      -0.104000
     12 C34        -18.2640    12.4840   -18.1440 ca         1 H6F      -0.021000
     13 N25        -19.4450    15.7970   -21.8880 ns         1 H6F      -0.496900
     14 C21        -19.9300    16.7280   -22.9350 c3         1 H6F       0.036700
     15 C20        -19.0690    16.5280   -24.2160 c          1 H6F       0.591100
     16 O38        -17.8850    16.2170   -24.1790 o          1 H6F      -0.619100
     17 C22        -19.9000    18.2070   -22.4210 c3         1 H6F      -0.071700
     18 C24        -20.7630    18.4130   -21.1510 c3         1 H6F      -0.093100
     19 C23        -20.2980    19.2400   -23.5070 c3         1 H6F      -0.093100
     20 N19        -19.7360    16.7270   -25.4070 ns         1 H6F      -0.478900
     21 C14        -19.1180    16.7130   -26.7500 c3         1 H6F       0.037700
     22 C13        -19.6040    17.9610   -27.5360 c          1 H6F       0.582100
     23 O39        -20.6710    18.5160   -27.3070 o          1 H6F      -0.606100
     24 C15        -19.4630    15.4050   -27.5130 c3         1 H6F      -0.084400
     25 C16        -18.8860    14.0940   -26.9060 c3         1 H6F      -0.059700
     26 C17        -17.3400    14.0450   -26.9580 c3         1 H6F      -0.090600
     27 C18        -19.4910    12.8530   -27.6010 c3         1 H6F      -0.090600
     28 C07        -18.9090    22.4980   -25.4760 c6         1 H6F      -0.095400
     29 C03        -18.8800    19.7040   -29.2340 c3         1 H6F      -0.019300
     30 C06        -19.0990    21.7420   -26.8030 c6         1 H6F      -0.075400
     31 C10        -16.4980    21.9150   -26.9370 c          1 H6F       0.569000
     32 C04        -17.7890    20.7210   -28.7880 c3         1 H6F      -0.070400
     33 C02        -18.8810    19.4350   -30.7620 c          1 H6F       0.560900
     34 C05        -17.7670    21.0780   -27.2610 c6         1 H6F      -0.141700
     35 C08        -17.8650    23.6170   -25.6520 c6         1 H6F       0.116000
     36 N12        -18.7330    18.4210   -28.5050 ns         1 H6F      -0.495900
     37 N09        -16.6570    23.1470   -26.3440 ns         1 H6F      -0.508900
     38 H37        -17.4840    14.7160   -20.5980 ha         1 H6F       0.118000
     39 H36        -16.4080    13.2620   -18.9430 ha         1 H6F       0.118000
     40 H12        -21.3820    13.3670   -19.2370 ha         1 H6F       0.134000
     41 H32        -21.5320    11.7380   -17.4290 ha         1 H6F       0.118000
     42 H33        -20.4190    10.2720   -15.7580 ha         1 H6F       0.116000
     43 H34        -17.9320    10.2120   -15.6040 ha         1 H6F       0.115000
     44 H35        -16.5550    11.6200   -17.1230 ha         1 H6F       0.116000
     45 H40        -18.4450    15.6800   -21.7890 hn         1 H6F       0.329500
     46 H7         -20.9630    16.4630   -23.1990 h1         1 H6F       0.090700
     47 H8         -18.8630    18.4320   -22.1400 hc         1 H6F       0.058700
     48 H9         -20.3960    17.8050   -20.3160 hc         1 H6F       0.040867
     49 H10        -20.7340    19.4610   -20.8270 hc         1 H6F       0.040867
     50 H11        -21.8090    18.1450   -21.3420 hc         1 H6F       0.040867
     51 H29        -20.3110    20.2550   -23.0910 hc         1 H6F       0.040867
     52 H30        -19.5820    19.2440   -24.3380 hc         1 H6F       0.040867
     53 H31        -21.2960    19.0240   -23.9070 hc         1 H6F       0.040867
     54 H39        -20.7090    17.0090   -25.3420 hn         1 H6F       0.332500
     55 H24        -18.0290    16.8090   -26.6510 h1         1 H6F       0.081700
     56 H2         -19.1100    15.4930   -28.5490 hc         1 H6F       0.056700
     57 H3         -20.5560    15.3220   -27.5710 hc         1 H6F       0.056700
     58 H25        -19.1860    14.0440   -25.8520 hc         1 H6F       0.053700
     59 H4         -16.8940    14.8660   -26.3860 hc         1 H6F       0.036200
     60 H5         -16.9700    13.1060   -26.5290 hc         1 H6F       0.036200
     61 H6         -16.9810    14.1120   -27.9920 hc         1 H6F       0.036200
     62 H26        -19.1160    11.9300   -27.1420 hc         1 H6F       0.036200
     63 H27        -20.5840    12.8520   -27.5140 hc         1 H6F       0.036200
     64 H28        -19.2310    12.8360   -28.6670 hc         1 H6F       0.036200
     65 H20        -19.8630    22.9250   -25.1370 hc         1 H6F       0.057200
     66 H21        -18.5800    21.8000   -24.6930 hc         1 H6F       0.057200
     67 H14        -19.8660    20.1330   -29.0160 h1         1 H6F       0.099700
     68 H18        -19.4520    22.4480   -27.5670 hc         1 H6F       0.052200
     69 H19        -19.8860    20.9860   -26.6900 hc         1 H6F       0.052200
     70 H15        -16.8130    20.3110   -29.0780 hc         1 H6F       0.072700
     71 H16        -17.9090    21.6420   -29.3730 hc         1 H6F       0.072700
     72 H13        -19.8060    18.9580   -31.1530 h4         1 H6F      -0.005800
     73 H17        -17.6230    20.1320   -26.7230 hc         1 H6F       0.085700
     74 H22        -18.2990    24.4340   -26.2460 h1         1 H6F       0.037700
     75 H23        -17.5820    24.0270   -24.6720 h1         1 H6F       0.037700
     76 H1         -17.8780    17.8890   -28.6340 hn         1 H6F       0.324500
     77 H38        -15.8010    23.6680   -26.1990 hn         1 H6F       0.313500
     78 O01        -17.9520    19.7130   -31.5150 o          1 H6F      -0.498100
     79 O11        -15.3740    21.5060   -27.1840 o          1 H6F      -0.578000
@<TRIPOS>BOND
     1     1     2 2   
     2     2     3 1   
     3     2    13 1   
     4     3     4 ar  
     5     3     6 ar  
     6     4     5 ar  
     7     4    38 1   
     8     5    12 ar  
     9     5    39 1   
    10     6     7 ar  
    11     6    40 1   
    12     7     8 ar  
    13     7    12 ar  
    14     8     9 ar  
    15     8    41 1   
    16     9    10 ar  
    17     9    42 1   
    18    10    11 ar  
    19    10    43 1   
    20    11    12 ar  
    21    11    44 1   
    22    13    14 1   
    23    13    45 1   
    24    14    15 1   
    25    14    17 1   
    26    14    46 1   
    27    15    16 2   
    28    15    20 1   
    29    17    18 1   
    30    17    19 1   
    31    17    47 1   
    32    18    48 1   
    33    18    49 1   
    34    18    50 1   
    35    19    51 1   
    36    19    52 1   
    37    19    53 1   
    38    20    21 1   
    39    20    54 1   
    40    21    22 1   
    41    21    24 1   
    42    21    55 1   
    43    22    23 2   
    44    22    36 1   
    45    24    25 1   
    46    24    56 1   
    47    24    57 1   
    48    25    26 1   
    49    25    27 1   
    50    25    58 1   
    51    26    59 1   
    52    26    60 1   
    53    26    61 1   
    54    27    62 1   
    55    27    63 1   
    56    27    64 1   
    57    28    30 1   
    58    28    35 1   
    59    28    65 1   
    60    28    66 1   
    61    29    32 1   
    62    29    33 1   
    63    29    36 1   
    64    29    67 1   
    65    30    34 1   
    66    30    68 1   
    67    30    69 1   
    68    31    34 1   
    69    31    37 1   
    70    31    79 2   
    71    32    34 1   
    72    32    70 1   
    73    32    71 1   
    74    33    72 1   
    75    33    78 2   
    76    34    73 1   
    77    35    37 1   
    78    35    74 1   
    79    35    75 1   
    80    36    76 1   
    81    37    77 1   
@<TRIPOS>SUBSTRUCTURE
     1 H6F         1 TEMP              0 ****  ****    0 ROOT
