@<TRIPOS>MOLECULE
H6G
   52    54     1     0     0
SMALL
No Charge or Current Charge


@<TRIPOS>ATOM
      1 C13          4.4670    -1.1860     1.2760 c3         1 H6G       0.098000
      2 C15          5.0230    -2.7450    -0.5990 c          1 H6G       0.599300
      3 C17          5.3040    -4.6280    -2.2540 c2         1 H6G      -0.248000
      4 C20          1.8000    -1.2400    -0.6530 c3         1 H6G       0.194800
      5 C22         -1.0470     2.4770     0.0010 cp         1 H6G       0.142000
      6 C24         -2.3380     4.6960    -0.1670 ca         1 H6G      -0.118000
      7 C26         -1.1230     6.7740    -0.2280 ca         1 H6G      -0.168000
      8 C02         -5.3770    -3.3850     0.2150 c          1 H6G       0.725000
      9 C04         -5.1570    -1.8750     0.1340 c3         1 H6G      -0.232400
     10 C05         -3.6470    -1.6170     0.1620 c3         1 H6G       0.236800
     11 C07         -2.1680     0.4650     0.0810 ca         1 H6G       0.410900
     12 C08         -0.9600    -0.2260     0.1580 ca         1 H6G      -0.362000
     13 C09          0.2130     0.5340     0.1450 ca         1 H6G       0.389900
     14 C11          2.6110     0.5980     0.9200 c3         1 H6G       0.222800
     15 C12          3.3770    -0.2980     1.9190 c3         1 H6G      -0.120400
     16 C16          4.6060    -3.5650    -1.7830 ce         1 H6G      -0.288200
     17 C19          2.5800    -2.3820     0.0350 c3         1 H6G       0.072000
     18 C23         -1.1020     3.9940    -0.0810 cp         1 H6G       0.306000
     19 C25         -2.3520     6.0990    -0.2410 ca         1 H6G      -0.093000
     20 C27          0.0630     6.0280    -0.1420 ca         1 H6G       0.320900
     21 N10          1.4830    -0.0770     0.2210 nh         1 H6G      -0.768300
     22 N14          4.0360    -2.1010     0.1880 n          1 H6G      -0.405800
     23 N21          0.1660     1.8780     0.0720 nb         1 H6G      -0.271000
     24 N28          0.0760     4.6780    -0.0700 nb         1 H6G      -0.632000
     25 N29         -2.2180     1.8000     0.0010 nb         1 H6G      -0.312000
     26 O01         -5.4650    -3.8950     1.3210 o          1 H6G      -0.731000
     27 O03         -5.4040    -4.0190    -0.8290 o          1 H6G      -0.731000
     28 O18          6.2050    -2.6810    -0.2850 o          1 H6G      -0.621100
     29 H1           5.2440    -0.5230     0.8730 h1         1 H6G       0.049200
     30 H2           4.9340    -1.7900     2.0650 h1         1 H6G       0.049200
     31 H3           4.9480    -5.2190    -3.1000 ha         1 H6G       0.170500
     32 H4           6.2510    -4.9390    -1.8100 ha         1 H6G       0.170500
     33 H5           2.3720    -0.9010    -1.5270 h1         1 H6G       0.063200
     34 H6           0.8720    -1.6750    -1.0460 h1         1 H6G       0.063200
     35 H7          -3.2790     4.1540    -0.1760 ha         1 H6G       0.150000
     36 H8          -1.0830     7.8580    -0.2830 ha         1 H6G       0.113000
     37 H9          -5.5220    -1.4800    -0.8230 hc         1 H6G       0.027200
     38 H10         -5.5750    -1.3740     1.0160 hc         1 H6G       0.027200
     39 H11         -3.2210    -2.0270     1.0890 h1         1 H6G       0.049700
     40 H12         -3.1710    -2.1300    -0.6860 h1         1 H6G       0.049700
     41 H13         -0.9290    -1.3050     0.2410 ha         1 H6G       0.140000
     42 H14          2.2270     1.4470     1.5000 h1         1 H6G       0.069200
     43 H15          3.3160     1.0160     0.1870 h1         1 H6G       0.069200
     44 H16          2.6700    -0.9060     2.4960 hc         1 H6G       0.055700
     45 H17          3.8750     0.3550     2.6460 hc         1 H6G       0.055700
     46 H18          3.6500    -3.3140    -2.2370 ha         1 H6G       0.185000
     47 H19          2.1400    -2.5680     1.0230 h1         1 H6G       0.061700
     48 H20          2.4250    -3.3100    -0.5240 h1         1 H6G       0.061700
     49 H21         -3.2910     6.6460    -0.3070 ha         1 H6G       0.113000
     50 H22          1.0320     6.5240    -0.1290 h4         1 H6G       0.010100
     51 H23         -4.2010     0.4410     0.0270 hn         1 H6G       0.497000
     52 N06         -3.3920    -0.1740     0.0860 nu         1 H6G      -0.919100
@<TRIPOS>BOND
     1     1    15 1   
     2     1    22 1   
     3     1    29 1   
     4     1    30 1   
     5     2    16 1   
     6     2    22 1   
     7     2    28 2   
     8     3    16 2   
     9     3    31 1   
    10     3    32 1   
    11     4    17 1   
    12     4    21 1   
    13     4    33 1   
    14     4    34 1   
    15     5    18 1   
    16     5    23 ar  
    17     5    25 ar  
    18     6    18 ar  
    19     6    19 ar  
    20     6    35 1   
    21     7    19 ar  
    22     7    20 ar  
    23     7    36 1   
    24     8     9 1   
    25     8    26 1   
    26     8    27 1   
    27     9    10 1   
    28     9    37 1   
    29     9    38 1   
    30    10    39 1   
    31    10    40 1   
    32    10    52 1   
    33    11    12 ar  
    34    11    25 ar  
    35    11    52 1   
    36    12    13 ar  
    37    12    41 1   
    38    13    21 1   
    39    13    23 ar  
    40    14    15 1   
    41    14    21 1   
    42    14    42 1   
    43    14    43 1   
    44    15    44 1   
    45    15    45 1   
    46    16    46 1   
    47    17    22 1   
    48    17    47 1   
    49    17    48 1   
    50    18    24 ar  
    51    19    49 1   
    52    20    24 ar  
    53    20    50 1   
    54    51    52 1   
@<TRIPOS>SUBSTRUCTURE
     1 H6G         1 TEMP              0 ****  ****    0 ROOT
