@<TRIPOS>MOLECULE
H6G
   52    54     1     0     0
SMALL
bcc


@<TRIPOS>ATOM
      1 C13          4.0790    -0.6250     1.1880 c3         1 H6G       0.098000
      2 C15          4.6720    -2.7010     0.1060 c          1 H6G       0.666300
      3 C17          5.0550    -4.9350    -0.8370 c2         1 H6G      -0.148000
      4 C20          1.7400    -1.4290    -1.0090 c3         1 H6G       0.194800
      5 C22         -0.9010     2.3440     0.0270 cp         1 H6G       0.668000
      6 C24         -2.1250     4.4360     0.6620 ca         1 H6G      -0.201300
      7 C26         -0.9260     6.4950     0.7840 ca         1 H6G      -0.251300
      8 C02         -5.2120    -3.4830    -0.4720 c          1 H6G       0.935600
      9 C04         -4.8880    -2.0020    -0.2020 c3         1 H6G      -0.232400
     10 C05         -3.4180    -1.6500    -0.3180 c3         1 H6G       0.236800
     11 C07         -2.0400     0.3940    -0.1400 ca         1 H6G       0.739200
     12 C08         -0.8520    -0.2740    -0.4500 ca         1 H6G      -0.510600
     13 C09          0.3120     0.4980    -0.5150 ca         1 H6G       0.718200
     14 C11          2.7280     0.7540    -0.5260 c3         1 H6G       0.222800
     15 C12          3.1600     0.5670     0.9330 c3         1 H6G      -0.120400
     16 C16          4.2890    -3.8520    -0.7610 ce         1 H6G      -0.238200
     17 C19          2.2840    -2.1030     0.2540 c3         1 H6G       0.072000
     18 C23         -0.9330     3.8120     0.3000 cp         1 H6G       0.371300
     19 C25         -2.1180     5.7990     0.9080 ca         1 H6G      -0.111000
     20 C27          0.2080     5.7840     0.4170 ca         1 H6G       0.386200
     21 N10          1.5330    -0.0090    -0.8530 nh         1 H6G      -0.768300
     22 N14          3.6970    -1.8360     0.4700 n          1 H6G      -0.472800
     23 N21          0.2720     1.8160    -0.2600 nb         1 H6G      -0.797000
     24 N28          0.2100     4.4810     0.1800 nb         1 H6G      -0.632000
     25 N29         -2.0600     1.7170     0.1000 nb         1 H6G      -0.838000
     26 O01         -4.2560    -4.2470    -0.7060 o          1 H6G      -0.836300
     27 O03         -6.4190    -3.7910    -0.4270 o          1 H6G      -0.836300
     28 O18          5.8380    -2.5500     0.4540 o          1 H6G      -0.621100
     29 H1           5.0870    -0.3620     0.8710 h1         1 H6G       0.049200
     30 H2           4.1270    -0.8200     2.2640 h1         1 H6G       0.049200
     31 H3           4.7870    -5.7620    -1.4800 ha         1 H6G       0.120500
     32 H4           5.9640    -5.0360    -0.2590 ha         1 H6G       0.120500
     33 H5           2.4480    -1.5840    -1.8280 h1         1 H6G       0.063200
     34 H6           0.8170    -1.9130    -1.3150 h1         1 H6G       0.063200
     35 H7          -3.0340     3.8590     0.7480 ha         1 H6G       0.168000
     36 H8          -0.8700     7.5600     0.9640 ha         1 H6G       0.131000
     37 H9          -5.4710    -1.3850    -0.8950 hc         1 H6G       0.027200
     38 H10         -5.2510    -1.7450     0.7990 hc         1 H6G       0.027200
     39 H11         -2.8330    -2.2510     0.3850 h1         1 H6G       0.049700
     40 H12         -3.0520    -1.8970    -1.3200 h1         1 H6G       0.049700
     41 H13         -0.8580    -1.3390    -0.6140 ha         1 H6G       0.158000
     42 H14          2.5290     1.8040    -0.7160 h1         1 H6G       0.069200
     43 H15          3.5250     0.4450    -1.2080 h1         1 H6G       0.069200
     44 H16          2.2700     0.5190     1.5650 hc         1 H6G       0.055700
     45 H17          3.7070     1.4530     1.2640 hc         1 H6G       0.055700
     46 H18          3.3880    -3.8000    -1.3600 ha         1 H6G       0.135000
     47 H19          1.7260    -1.7640     1.1290 h1         1 H6G       0.061700
     48 H20          2.1140    -3.1770     0.2020 h1         1 H6G       0.061700
     49 H21         -3.0290     6.3080     1.1930 ha         1 H6G       0.131000
     50 H22          1.1590     6.2950     0.3080 h4         1 H6G       0.010100
     51 H23         -4.0190     0.3290     0.1680 hn         1 H6G       0.441800
     52 N06         -3.2190    -0.2410    -0.0560 nu         1 H6G      -0.863900
@<TRIPOS>BOND
     1     1    15 1   
     2     1    22 1   
     3     1    29 1   
     4     1    30 1   
     5     2    16 1   
     6     2    22 1   
     7     2    28 2   
     8     3    16 2   
     9     3    31 1   
    10     3    32 1   
    11     4    17 1   
    12     4    21 1   
    13     4    33 1   
    14     4    34 1   
    15     5    18 1   
    16     5    23 ar  
    17     5    25 ar  
    18     6    18 ar  
    19     6    19 ar  
    20     6    35 1   
    21     7    19 ar  
    22     7    20 ar  
    23     7    36 1   
    24     8     9 1   
    25     8    26 1   
    26     8    27 1   
    27     9    10 1   
    28     9    37 1   
    29     9    38 1   
    30    10    39 1   
    31    10    40 1   
    32    10    52 1   
    33    11    12 ar  
    34    11    25 ar  
    35    11    52 1   
    36    12    13 ar  
    37    12    41 1   
    38    13    21 1   
    39    13    23 ar  
    40    14    15 1   
    41    14    21 1   
    42    14    42 1   
    43    14    43 1   
    44    15    44 1   
    45    15    45 1   
    46    16    46 1   
    47    17    22 1   
    48    17    47 1   
    49    17    48 1   
    50    18    24 ar  
    51    19    49 1   
    52    20    24 ar  
    53    20    50 1   
    54    51    52 1   
@<TRIPOS>SUBSTRUCTURE
     1 H6G         1 TEMP              0 ****  ****    0 ROOT
