@<TRIPOS>MOLECULE
H6H
   81    84     1     0     0
SMALL
bcc


@<TRIPOS>ATOM
      1 CAP         -7.3070    -0.9810    -0.8330 ca         1 H6H      -0.110000
      2 CBK         -8.6040    -0.4410    -0.6670 ca         1 H6H      -0.035000
      3 CAN         -9.4080    -0.0720    -1.7710 ca         1 H6H      -0.116000
      4 CAK        -10.6580     0.4520    -1.5800 ca         1 H6H      -0.126000
      5 CAJ        -11.1640     0.6320    -0.2750 ca         1 H6H      -0.125000
      6 CAM        -10.4090     0.2820     0.8110 ca         1 H6H      -0.116000
      7 CBJ         -9.1140    -0.2610     0.6440 ca         1 H6H      -0.036000
      8 CAO         -8.3040    -0.6330     1.7430 ca         1 H6H      -0.115000
      9 CAL         -7.0550    -1.1510     1.5470 ca         1 H6H      -0.121000
     10 CBI         -6.5340    -1.3340     0.2420 ca         1 H6H      -0.077300
     11 CAV         -5.1380    -1.8590     0.0630 c3         1 H6H      -0.051100
     12 CAT         -4.1120    -0.7420     0.2370 c3         1 H6H       0.240800
     13 NBB         -2.7770    -1.2670     0.0830 nu         1 H6H      -0.870900
     14 CBE         -1.6640    -0.5050     0.1960 ca         1 H6H       0.970900
     15 NBA         -0.4980    -1.1470     0.2160 nb         1 H6H      -0.837000
     16 NAZ         -1.8560     0.8150     0.2610 nb         1 H6H      -0.885000
     17 CBH         -0.8090     1.6330     0.3600 ca         1 H6H       0.800200
     18 NBN         -1.0760     2.9490     0.4010 nh         1 H6H      -0.777300
     19 CAB         -2.4590     3.3860     0.3410 c3         1 H6H       0.223600
     20 CAA         -0.0170     3.9330     0.4420 c3         1 H6H       0.223600
     21 CBL          0.4980     1.0780     0.4120 ca         1 H6H      -0.438400
     22 CAI          1.8500     1.5150     0.5100 cc         1 H6H      -0.088200
     23 CBM          0.5400    -0.3260     0.3330 ca         1 H6H       0.533800
     24 NBP          1.8340    -0.7270     0.3990 na         1 H6H      -0.140100
     25 CAX          2.2790    -2.0930     0.2190 c3         1 H6H       0.055300
     26 CAU          2.9850    -2.2810    -1.1190 c3         1 H6H      -0.183400
     27 CBC          3.4690    -3.7050    -1.3010 c          1 H6H       0.676100
     28 OAF          2.9050    -4.6510    -0.7690 o          1 H6H      -0.600100
     29 NAC          4.5420    -3.8430    -2.0910 nt         1 H6H      -0.677000
     30 CBG          2.6380     0.4010     0.4890 cd         1 H6H      -0.185300
     31 CBF          4.0900     0.2910     0.7430 c          1 H6H       0.711300
     32 OAH          4.5100    -0.5070     1.5750 o          1 H6H      -0.590100
     33 N            4.9180     1.1080     0.0550 n          1 H6H      -0.454800
     34 CA           4.5460     1.8700    -1.1060 c3         1 H6H       0.020000
     35 C            4.4040     3.3610    -0.8140 c          1 H6H       0.647100
     36 O            4.4360     3.8050     0.3230 o          1 H6H      -0.589100
     37 NAD          4.2300     4.1140    -1.9050 nt         1 H6H      -0.679000
     38 CAW          6.3350     1.1120     0.3890 c3         1 H6H       0.099000
     39 CAS          7.1240     0.0260    -0.3320 c3         1 H6H      -0.100400
     40 CAR          8.6130     0.1110    -0.0220 c3         1 H6H      -0.077400
     41 CAQ          9.4140    -0.9810    -0.7150 c3         1 H6H       0.149800
     42 NAE         10.8330    -0.8560    -0.4160 n8         1 H6H      -0.884800
     43 H1          -6.9260    -1.1170    -1.8400 ha         1 H6H       0.131000
     44 H2          -9.0200    -0.2110    -2.7730 ha         1 H6H       0.131000
     45 H3         -11.2640     0.7310    -2.4330 ha         1 H6H       0.130000
     46 H4         -12.1530     1.0500    -0.1370 ha         1 H6H       0.131000
     47 H5         -10.7960     0.4200     1.8140 ha         1 H6H       0.131000
     48 H6          -8.6880    -0.5020     2.7480 ha         1 H6H       0.132000
     49 H7          -6.4500    -1.4310     2.4010 ha         1 H6H       0.132000
     50 H8          -4.9430    -2.6490     0.7940 hc         1 H6H       0.053200
     51 H9          -5.0280    -2.3020    -0.9290 hc         1 H6H       0.053200
     52 H10         -4.2930     0.0360    -0.5080 h1         1 H6H       0.052200
     53 H11         -4.2430    -0.2700     1.2170 h1         1 H6H       0.052200
     54 H12         -2.6420    -2.2590     0.1940 hn         1 H6H       0.444800
     55 H13         -3.0530     2.9400     1.1380 h1         1 H6H       0.042867
     56 H14         -2.4900     4.4660     0.4530 h1         1 H6H       0.042867
     57 H15         -2.9280     3.1220    -0.6070 h1         1 H6H       0.042867
     58 H16          0.6690     3.8250    -0.4000 h1         1 H6H       0.042867
     59 H17         -0.4520     4.9250     0.3810 h1         1 H6H       0.042867
     60 H18          0.5560     3.8830     1.3700 h1         1 H6H       0.042867
     61 H19          2.2170     2.5170     0.6440 ha         1 H6H       0.163000
     62 H20          2.9320    -2.3700     1.0440 h1         1 H6H       0.096200
     63 H21          1.3970    -2.7250     0.2710 h1         1 H6H       0.096200
     64 H22          2.2910    -2.0530    -1.9340 hc         1 H6H       0.060200
     65 H23          3.8200    -1.5830    -1.2230 hc         1 H6H       0.060200
     66 H24          4.9840    -3.0570    -2.5340 hn         1 H6H       0.312000
     67 H25          4.9050    -4.7580    -2.3050 hn         1 H6H       0.312000
     68 H26          5.3020     1.7290    -1.8840 h1         1 H6H       0.067200
     69 H27          3.6100     1.5050    -1.5280 h1         1 H6H       0.067200
     70 H28          4.2230     3.7190    -2.8310 hn         1 H6H       0.315500
     71 H29          4.1060     5.1100    -1.8260 hn         1 H6H       0.315500
     72 H30          6.7330     2.0950     0.1300 h1         1 H6H       0.065200
     73 H31          6.4470     1.0060     1.4680 h1         1 H6H       0.065200
     74 H32          6.7400    -0.9540    -0.0370 hc         1 H6H       0.042200
     75 H33          6.9710     0.1140    -1.4120 hc         1 H6H       0.042200
     76 H34          9.0030     1.0870    -0.3260 hc         1 H6H       0.050200
     77 H35          8.7640     0.0380     1.0600 hc         1 H6H       0.050200
     78 H36          8.9920    -1.9580    -0.4390 h1         1 H6H       0.024700
     79 H37          9.2820    -0.8870    -1.7970 h1         1 H6H       0.024700
     80 H38         10.9820    -1.0470     0.5680 hn         1 H6H       0.337300
     81 H39         11.3450    -1.5770    -0.9090 hn         1 H6H       0.337300
@<TRIPOS>BOND
     1     1     2 ar  
     2     1    10 ar  
     3     1    43 1   
     4     2     3 ar  
     5     2     7 ar  
     6     3     4 ar  
     7     3    44 1   
     8     4     5 ar  
     9     4    45 1   
    10     5     6 ar  
    11     5    46 1   
    12     6     7 ar  
    13     6    47 1   
    14     7     8 ar  
    15     8     9 ar  
    16     8    48 1   
    17     9    10 ar  
    18     9    49 1   
    19    10    11 1   
    20    11    12 1   
    21    11    50 1   
    22    11    51 1   
    23    12    13 1   
    24    12    52 1   
    25    12    53 1   
    26    13    14 1   
    27    13    54 1   
    28    14    15 ar  
    29    14    16 ar  
    30    15    23 ar  
    31    16    17 ar  
    32    17    18 1   
    33    17    21 ar  
    34    18    19 1   
    35    18    20 1   
    36    19    55 1   
    37    19    56 1   
    38    19    57 1   
    39    20    58 1   
    40    20    59 1   
    41    20    60 1   
    42    21    22 1   
    43    21    23 ar  
    44    22    30 2   
    45    22    61 1   
    46    23    24 1   
    47    24    25 1   
    48    24    30 1   
    49    25    26 1   
    50    25    62 1   
    51    25    63 1   
    52    26    27 1   
    53    26    64 1   
    54    26    65 1   
    55    27    28 2   
    56    27    29 1   
    57    29    66 1   
    58    29    67 1   
    59    30    31 1   
    60    31    32 2   
    61    31    33 1   
    62    33    34 1   
    63    33    38 1   
    64    34    35 1   
    65    34    68 1   
    66    34    69 1   
    67    35    36 2   
    68    35    37 1   
    69    37    70 1   
    70    37    71 1   
    71    38    39 1   
    72    38    72 1   
    73    38    73 1   
    74    39    40 1   
    75    39    74 1   
    76    39    75 1   
    77    40    41 1   
    78    40    76 1   
    79    40    77 1   
    80    41    42 1   
    81    41    78 1   
    82    41    79 1   
    83    42    80 1   
    84    42    81 1   
@<TRIPOS>SUBSTRUCTURE
     1 H6H         1 TEMP              0 ****  ****    0 ROOT
