@<TRIPOS>MOLECULE
H6H
   81    84     1     0     0
SMALL
No Charge or Current Charge


@<TRIPOS>ATOM
      1 CAP         -7.4310    -0.8420    -0.8120 ca         1 H6H      -0.092000
      2 CBK         -8.7300    -0.3020    -0.7910 ca         1 H6H      -0.035000
      3 CAN         -9.3710     0.0540    -1.9930 ca         1 H6H      -0.098000
      4 CAK        -10.6690     0.5940    -1.9670 ca         1 H6H      -0.108000
      5 CAJ        -11.3300     0.7800    -0.7400 ca         1 H6H      -0.107000
      6 CAM        -10.6940     0.4270     0.4630 ca         1 H6H      -0.098000
      7 CBJ         -9.3950    -0.1140     0.4420 ca         1 H6H      -0.036000
      8 CAO         -8.7520    -0.4690     1.6420 ca         1 H6H      -0.097000
      9 CAL         -7.4550    -1.0080     1.6150 ca         1 H6H      -0.103000
     10 CBI         -6.7880    -1.1990     0.3900 ca         1 H6H      -0.077300
     11 CAV         -5.3790    -1.7760     0.3630 c3         1 H6H      -0.051100
     12 CAT         -4.3050    -0.6710     0.3830 c3         1 H6H       0.240800
     13 NBB         -2.9500    -1.2480     0.3550 nu         1 H6H      -0.926100
     14 CBE         -1.7490    -0.5650     0.3620 ca         1 H6H       0.444900
     15 NBA         -0.6530    -1.3410     0.3320 nb         1 H6H      -0.311000
     16 NAZ         -1.7990     0.7780     0.3980 nb         1 H6H      -0.359000
     17 CBH         -0.6170     1.4210     0.3990 ca         1 H6H       0.471900
     18 NBN         -0.6550     2.8340     0.4240 nh         1 H6H      -0.777300
     19 CAB         -1.7970     3.5540     1.0330 c3         1 H6H       0.223600
     20 CAA          0.2710     3.6370    -0.4050 c3         1 H6H       0.223600
     21 CBL          0.5750     0.6750     0.3800 ca         1 H6H      -0.307800
     22 CAI          1.9530     1.0730     0.4300 cc         1 H6H      -0.138200
     23 CBM          0.5260    -0.6930     0.3450 ca         1 H6H       0.205500
     24 NBP          1.8270    -1.1870     0.3440 na         1 H6H      -0.169400
     25 CAX          2.1360    -2.6280     0.2720 c3         1 H6H       0.084600
     26 CAU          2.5800    -3.0690    -1.1380 c3         1 H6H      -0.183400
     27 CBC          2.9620    -4.5450    -1.1330 c          1 H6H       0.609100
     28 OAF          2.1490    -5.4460    -1.2460 o          1 H6H      -0.600100
     29 NAC          4.2740    -4.8170    -0.9860 nt         1 H6H      -0.610000
     30 CBG          2.7280    -0.0830     0.3570 cd         1 H6H      -0.185300
     31 CBF          4.2330    -0.1460     0.4210 c          1 H6H       0.644300
     32 OAH          4.8110    -1.1740     0.7530 o          1 H6H      -0.590100
     33 N            4.9840     1.0140     0.0820 n          1 H6H      -0.387800
     34 CA           4.5190     2.0130    -0.9360 c3         1 H6H       0.020000
     35 C            4.3410     3.4680    -0.4430 c          1 H6H       0.580100
     36 O            4.4980     3.8260     0.7130 o          1 H6H      -0.589100
     37 NAD          3.9700     4.3670    -1.3810 nt         1 H6H      -0.612000
     38 CAW          6.4140     1.0930     0.4750 c3         1 H6H       0.099000
     39 CAS          7.3940     0.5740    -0.6010 c3         1 H6H      -0.100400
     40 CAR          8.8660     0.5990    -0.1340 c3         1 H6H      -0.077400
     41 CAQ          9.8450     0.0800    -1.2070 c3         1 H6H       0.149800
     42 NAE         11.2400     0.1210    -0.7330 n8         1 H6H      -0.995200
     43 H1          -6.9190    -0.9850    -1.7610 ha         1 H6H       0.113000
     44 H2          -8.8670    -0.0870    -2.9460 ha         1 H6H       0.113000
     45 H3         -11.1620     0.8680    -2.8970 ha         1 H6H       0.112000
     46 H4         -12.3340     1.1980    -0.7220 ha         1 H6H       0.113000
     47 H5         -11.2120     0.5740     1.4080 ha         1 H6H       0.113000
     48 H6          -9.2560    -0.3270     2.5960 ha         1 H6H       0.114000
     49 H7          -6.9670    -1.2760     2.5500 ha         1 H6H       0.114000
     50 H8          -5.2280    -2.4400     1.2230 hc         1 H6H       0.053200
     51 H9          -5.2440    -2.3930    -0.5330 hc         1 H6H       0.053200
     52 H10         -4.4510    -0.0140    -0.4860 h1         1 H6H       0.052200
     53 H11         -4.4360    -0.0610     1.2880 h1         1 H6H       0.052200
     54 H12         -2.8650    -2.2630     0.3270 hn         1 H6H       0.500000
     55 H13         -2.1010     3.0730     1.9720 h1         1 H6H       0.042867
     56 H14         -1.5220     4.5920     1.2660 h1         1 H6H       0.042867
     57 H15         -2.6550     3.5680     0.3480 h1         1 H6H       0.042867
     58 H16          0.7280     3.0200    -1.1900 h1         1 H6H       0.042867
     59 H17         -0.2650     4.4570    -0.9010 h1         1 H6H       0.042867
     60 H18          1.0690     4.0660     0.2150 h1         1 H6H       0.042867
     61 H19          2.3250     2.0780     0.6040 ha         1 H6H       0.213000
     62 H20          2.9250    -2.8560     1.0000 h1         1 H6H       0.096200
     63 H21          1.2510    -3.2040     0.5720 h1         1 H6H       0.096200
     64 H22          1.7510    -2.9050    -1.8360 hc         1 H6H       0.060200
     65 H23          3.4480    -2.4630    -1.4210 hc         1 H6H       0.060200
     66 H24          4.9380    -4.0630    -0.8840 hn         1 H6H       0.312000
     67 H25          4.5820    -5.7780    -0.9750 hn         1 H6H       0.312000
     68 H26          5.2520     2.0510    -1.7500 h1         1 H6H       0.067200
     69 H27          3.5830     1.6890    -1.4040 h1         1 H6H       0.067200
     70 H28          3.8410     4.0800    -2.3410 hn         1 H6H       0.315500
     71 H29          3.8450     5.3330    -1.1160 hn         1 H6H       0.315500
     72 H30          6.6610     2.1380     0.7040 h1         1 H6H       0.065200
     73 H31          6.5640     0.5250     1.4040 h1         1 H6H       0.065200
     74 H32          7.1200    -0.4540    -0.8710 hc         1 H6H       0.042200
     75 H33          7.3010     1.1800    -1.5100 hc         1 H6H       0.042200
     76 H34          9.1400     1.6260     0.1380 hc         1 H6H       0.050200
     77 H35          8.9650    -0.0120     0.7730 hc         1 H6H       0.050200
     78 H36          9.5920    -0.9570    -1.4700 h1         1 H6H       0.024700
     79 H37          9.7640     0.6980    -2.1120 h1         1 H6H       0.024700
     80 H38         11.3410    -0.5240     0.0600 hn         1 H6H       0.392500
     81 H39         11.8490    -0.2880    -1.4530 hn         1 H6H       0.392500
@<TRIPOS>BOND
     1     1     2 ar  
     2     1    10 ar  
     3     1    43 1   
     4     2     3 ar  
     5     2     7 ar  
     6     3     4 ar  
     7     3    44 1   
     8     4     5 ar  
     9     4    45 1   
    10     5     6 ar  
    11     5    46 1   
    12     6     7 ar  
    13     6    47 1   
    14     7     8 ar  
    15     8     9 ar  
    16     8    48 1   
    17     9    10 ar  
    18     9    49 1   
    19    10    11 1   
    20    11    12 1   
    21    11    50 1   
    22    11    51 1   
    23    12    13 1   
    24    12    52 1   
    25    12    53 1   
    26    13    14 1   
    27    13    54 1   
    28    14    15 ar  
    29    14    16 ar  
    30    15    23 ar  
    31    16    17 ar  
    32    17    18 1   
    33    17    21 ar  
    34    18    19 1   
    35    18    20 1   
    36    19    55 1   
    37    19    56 1   
    38    19    57 1   
    39    20    58 1   
    40    20    59 1   
    41    20    60 1   
    42    21    22 1   
    43    21    23 ar  
    44    22    30 2   
    45    22    61 1   
    46    23    24 1   
    47    24    25 1   
    48    24    30 1   
    49    25    26 1   
    50    25    62 1   
    51    25    63 1   
    52    26    27 1   
    53    26    64 1   
    54    26    65 1   
    55    27    28 2   
    56    27    29 1   
    57    29    66 1   
    58    29    67 1   
    59    30    31 1   
    60    31    32 2   
    61    31    33 1   
    62    33    34 1   
    63    33    38 1   
    64    34    35 1   
    65    34    68 1   
    66    34    69 1   
    67    35    36 2   
    68    35    37 1   
    69    37    70 1   
    70    37    71 1   
    71    38    39 1   
    72    38    72 1   
    73    38    73 1   
    74    39    40 1   
    75    39    74 1   
    76    39    75 1   
    77    40    41 1   
    78    40    76 1   
    79    40    77 1   
    80    41    42 1   
    81    41    78 1   
    82    41    79 1   
    83    42    80 1   
    84    42    81 1   
@<TRIPOS>SUBSTRUCTURE
     1 H6H         1 TEMP              0 ****  ****    0 ROOT
