@<TRIPOS>MOLECULE
H6I
   43    45     1     0     0
SMALL
No Charge or Current Charge


@<TRIPOS>ATOM
      1 C10         36.7480    28.6230    30.1950 ca         1 H6I      -0.318500
      2 C13         34.3720    32.4500    28.8910 c          1 H6I       0.723600
      3 C15         37.3890    32.2990    26.5360 ca         1 H6I      -0.142000
      4 C17         39.7760    31.5480    26.8090 ce         1 H6I      -0.030400
      5 C20         41.8650    32.1300    25.9170 c5         1 H6I      -0.080400
      6 C21         40.3440    32.4260    25.7110 c5         1 H6I      -0.046200
      7 C22         38.0950    31.4610    28.6930 ca         1 H6I      -0.143000
      8 C24         37.6690    27.0470    28.5880 ca         1 H6I      -0.183000
      9 N           36.5320    31.3380    30.5390 nu         1 H6I      -0.918100
     10 O           32.8860    26.6870    29.9520 o          1 H6I      -0.692200
     11 C08         35.2660    27.0850    29.0100 ca         1 H6I      -0.236500
     12 C09         35.4530    28.1300    29.9370 ca         1 H6I       0.085000
     13 C11         36.8010    31.6580    29.2140 ca         1 H6I       0.282000
     14 C12         35.7830    32.1980    28.3870 ca         1 H6I      -0.147600
     15 C14         36.1000    32.5130    27.0450 ca         1 H6I      -0.075000
     16 C16         38.4010    31.7690    27.3530 ca         1 H6I      -0.062800
     17 C18         40.5850    30.5740    27.2500 c2         1 H6I      -0.259200
     18 C19         41.8770    30.6690    26.4700 c5         1 H6I      -0.042200
     19 C23         37.8580    28.0790    29.5200 ca         1 H6I      -0.012000
     20 C25         36.3800    26.5500    28.3310 ca         1 H6I       0.010000
     21 O03         35.9200    29.8980    32.3870 o          1 H6I      -0.585500
     22 O04         33.9830    31.8670    29.8960 o          1 H6I      -0.676500
     23 O05         33.6680    33.2330    28.2670 o          1 H6I      -0.676500
     24 O06         38.3790    30.1540    31.6990 o          1 H6I      -0.585500
     25 O07         33.8280    25.0410    28.3240 o          1 H6I      -0.692200
     26 S           36.9650    29.9610    31.3660 sy         1 H6I       1.144600
     27 S01         33.5690    26.4470    28.6710 s6         1 H6I       1.260100
     28 O1          33.1570    27.3130    27.5570 o          1 H6I      -0.692200
     29 H1          37.5950    32.5440    25.4970 ha         1 H6I       0.084000
     30 H2          42.4480    32.2390    24.9950 hc         1 H6I       0.027200
     31 H3          40.1010    33.4870    25.8410 hc         1 H6I       0.045700
     32 H4          38.8780    31.0830    29.3390 ha         1 H6I       0.124000
     33 H5          38.5240    26.6300    28.0620 ha         1 H6I       0.080000
     34 H6          35.5370    31.3990    30.7530 hn         1 H6I       0.579000
     35 H7          34.5940    28.5590    30.4520 ha         1 H6I       0.159000
     36 H8          35.3390    32.9220    26.3830 ha         1 H6I       0.129000
     37 H9          40.3480    29.8400    28.0210 ha         1 H6I       0.200000
     38 H10         41.8870    29.9330    25.6570 hc         1 H6I       0.031700
     39 H11         42.7520    30.4750    27.1000 hc         1 H6I       0.031700
     40 H12         38.8620    28.4540    29.7080 ha         1 H6I       0.108000
     41 H13         36.2500    25.7530    27.6020 ha         1 H6I       0.121000
     42 H16         39.9930    32.1060    24.7230 hc         1 H6I       0.045700
     43 H17         42.2920    32.8200    26.6540 hc         1 H6I       0.027200
@<TRIPOS>BOND
     1     1    12 ar  
     2     1    19 ar  
     3     1    26 1   
     4     2    14 1   
     5     2    22 1   
     6     2    23 1   
     7     3    15 ar  
     8     3    16 ar  
     9     3    29 1   
    10     4     6 1   
    11     4    16 1   
    12     4    17 2   
    13     5     6 1   
    14     5    18 1   
    15     5    30 1   
    16     5    43 1   
    17     6    31 1   
    18     6    42 1   
    19     7    13 ar  
    20     7    16 ar  
    21     7    32 1   
    22     8    19 ar  
    23     8    20 ar  
    24     8    33 1   
    25     9    13 1   
    26     9    26 1   
    27     9    34 1   
    28    10    27 1   
    29    11    12 ar  
    30    11    20 ar  
    31    11    27 1   
    32    12    35 1   
    33    13    14 ar  
    34    14    15 ar  
    35    15    36 1   
    36    17    18 1   
    37    17    37 1   
    38    18    38 1   
    39    18    39 1   
    40    19    40 1   
    41    20    41 1   
    42    21    26 2   
    43    24    26 2   
    44    25    27 1   
    45    27    28 1   
@<TRIPOS>SUBSTRUCTURE
     1 H6I         1 TEMP              0 ****  ****    0 ROOT
