@<TRIPOS>MOLECULE
H6I
   43    45     1     0     0
SMALL
abcg2


@<TRIPOS>ATOM
      1 C10         36.7150    28.5240    30.1360 ca         1 H6I      -0.318500
      2 C13         34.4050    31.7480    28.7970 c          1 H6I       0.723600
      3 C15         37.4790    32.0450    26.5710 ca         1 H6I      -0.142000
      4 C17         39.9160    31.7310    26.9480 ce         1 H6I      -0.030400
      5 C20         41.8560    32.3270    25.6820 c5         1 H6I      -0.080400
      6 C21         40.3210    32.3290    25.6210 c5         1 H6I      -0.046200
      7 C22         38.2390    31.4900    28.7740 ca         1 H6I      -0.143000
      8 C24         37.3250    26.8520    28.5460 ca         1 H6I      -0.183000
      9 N           36.6270    31.2040    30.5840 nu         1 H6I      -0.918100
     10 O           32.7460    26.5600    30.0260 o          1 H6I      -0.692200
     11 C08         35.0060    27.3010    28.9980 ca         1 H6I      -0.236500
     12 C09         35.3690    28.2740    29.9180 ca         1 H6I       0.085000
     13 C11         36.9280    31.4710    29.2300 ca         1 H6I       0.282000
     14 C12         35.8610    31.7450    28.3550 ca         1 H6I      -0.147600
     15 C14         36.1740    32.0400    27.0330 ca         1 H6I      -0.075000
     16 C16         38.5350    31.7530    27.4360 ca         1 H6I      -0.062800
     17 C18         40.9630    31.1430    27.5390 c2         1 H6I      -0.259200
     18 C19         42.2190    31.2650    26.7330 c5         1 H6I      -0.042200
     19 C23         37.7040    27.8260    29.4560 ca         1 H6I      -0.012000
     20 C25         35.9810    26.5890    28.3150 ca         1 H6I       0.010000
     21 O03         36.3600    29.6530    32.4900 o          1 H6I      -0.585500
     22 O04         34.1870    31.6200    30.0370 o          1 H6I      -0.676500
     23 O05         33.5410    31.8800    27.9260 o          1 H6I      -0.676500
     24 O06         38.6040    29.8270    31.3940 o          1 H6I      -0.585500
     25 O07         33.1950    25.9630    27.6780 o          1 H6I      -0.692200
     26 S           37.1540    29.8100    31.2820 sy         1 H6I       1.144600
     27 S01         33.2550    27.0000    28.7190 s6         1 H6I       1.260100
     28 O1          32.7280    28.3050    28.2900 o          1 H6I      -0.692200
     29 H1          37.6700    32.2690    25.5300 ha         1 H6I       0.084000
     30 H2          42.3140    32.1360    24.7120 hc         1 H6I       0.027200
     31 H3          39.9110    33.3300    25.4660 hc         1 H6I       0.045700
     32 H4          39.0450    31.3230    29.4740 ha         1 H6I       0.124000
     33 H5          38.0830    26.2970    28.0090 ha         1 H6I       0.080000
     34 H6          35.5760    31.3430    30.6840 hn         1 H6I       0.579000
     35 H7          34.6100    28.8390    30.4460 ha         1 H6I       0.159000
     36 H8          35.3680    32.2620    26.3460 ha         1 H6I       0.129000
     37 H9          40.9210    30.5860    28.4670 ha         1 H6I       0.200000
     38 H10         42.4710    30.3020    26.2740 hc         1 H6I       0.031700
     39 H11         43.0850    31.5480    27.3360 hc         1 H6I       0.031700
     40 H12         38.7500    28.0360    29.6300 ha         1 H6I       0.108000
     41 H13         35.6970    25.8300    27.5990 ha         1 H6I       0.121000
     42 H16         39.9470    31.7110    24.7970 hc         1 H6I       0.045700
     43 H17         42.2060    33.3040    26.0180 hc         1 H6I       0.027200
@<TRIPOS>BOND
     1     1    12 ar  
     2     1    19 ar  
     3     1    26 1   
     4     2    14 1   
     5     2    22 1   
     6     2    23 1   
     7     3    15 ar  
     8     3    16 ar  
     9     3    29 1   
    10     4     6 1   
    11     4    16 1   
    12     4    17 2   
    13     5     6 1   
    14     5    18 1   
    15     5    30 1   
    16     5    43 1   
    17     6    31 1   
    18     6    42 1   
    19     7    13 ar  
    20     7    16 ar  
    21     7    32 1   
    22     8    19 ar  
    23     8    20 ar  
    24     8    33 1   
    25     9    13 1   
    26     9    26 1   
    27     9    34 1   
    28    10    27 1   
    29    11    12 ar  
    30    11    20 ar  
    31    11    27 1   
    32    12    35 1   
    33    13    14 ar  
    34    14    15 ar  
    35    15    36 1   
    36    17    18 1   
    37    17    37 1   
    38    18    38 1   
    39    18    39 1   
    40    19    40 1   
    41    20    41 1   
    42    21    26 2   
    43    24    26 2   
    44    25    27 1   
    45    27    28 1   
@<TRIPOS>SUBSTRUCTURE
     1 H6I         1 TEMP              0 ****  ****    0 ROOT
