@<TRIPOS>MOLECULE
H6J
   53    55     1     0     0
SMALL
No Charge or Current Charge


@<TRIPOS>ATOM
      1 C13          3.7200    -0.6880     2.0190 c3         1 H6J       0.234800
      2 C17          4.8750     0.5240    -1.7340 ce         1 H6J      -0.431100
      3 C20          2.8710     1.0320     0.3420 c3         1 H6J       0.195800
      4 C21          1.8930     1.5650     1.4250 c3         1 H6J       0.228800
      5 C24         -2.7500     3.1340    -0.1970 cp         1 H6J       0.316000
      6 C26         -4.5320     4.4990    -1.1860 ca         1 H6J      -0.093000
      7 C28         -2.5640     5.4700    -0.1700 ca         1 H6J       0.321900
      8 C02         -3.4160    -5.3710    -0.4040 c          1 H6J       0.725000
      9 C04         -3.8010    -3.9110    -0.6400 c3         1 H6J      -0.230400
     10 C05         -2.6920    -3.0300    -0.0540 c3         1 H6J       0.235800
     11 C07         -2.2900    -0.5120     0.1280 ca         1 H6J       0.410900
     12 C08         -1.0680    -0.6180     0.7900 ca         1 H6J      -0.351000
     13 C09         -0.4170     0.5730     1.1300 ca         1 H6J       0.386900
     14 C11          1.2390    -0.5170     2.6910 c3         1 H6J       0.224800
     15 C12          2.3590    -1.4100     2.1190 c3         1 H6J      -0.123400
     16 C18          5.7520     1.5590    -1.6870 c2         1 H6J      -0.158000
     17 C23         -2.1450     1.7860     0.1640 cp         1 H6J       0.150000
     18 C25         -4.0030     3.2380    -0.8660 ca         1 H6J      -0.117000
     19 C27         -3.7930     5.6360    -0.8280 ca         1 H6J      -0.170000
     20 N10          0.8320     0.5840     1.7940 nh         1 H6J      -0.763300
     21 N14          3.9580     0.1090     0.7910 n3         1 H6J      -0.781500
     22 N22         -0.9550     1.7650     0.8090 nb         1 H6J      -0.274000
     23 N29         -2.0550     4.2560     0.1370 nb         1 H6J      -0.631000
     24 N30         -2.8280     0.6720    -0.1830 nb         1 H6J      -0.308000
     25 O01         -3.7630    -5.8950     0.6430 o          1 H6J      -0.733000
     26 O03         -2.7360    -5.9310    -1.2500 o          1 H6J      -0.733000
     27 O16          3.8900    -1.8040    -0.9090 o          1 H6J      -0.531000
     28 O19          6.1300    -0.9590     0.0350 o          1 H6J      -0.531000
     29 S15          4.7670    -0.7220    -0.4540 sy         1 H6J       1.173200
     30 H1           3.8210    -0.0340     2.8960 h1         1 H6J       0.038700
     31 H2           4.5120    -1.4420     2.1280 h1         1 H6J       0.038700
     32 H3           4.1600     0.3410    -2.5360 h4         1 H6J       0.209000
     33 H4           2.2560     0.5430    -0.4270 h1         1 H6J       0.064700
     34 H5           3.3250     1.9100    -0.1350 h1         1 H6J       0.064700
     35 H6           2.4650     1.8630     2.3130 h1         1 H6J       0.052700
     36 H7           1.4410     2.4890     1.0400 h1         1 H6J       0.052700
     37 H8          -5.4890     4.5910    -1.6960 ha         1 H6J       0.111000
     38 H9          -1.9680     6.3340     0.1210 h4         1 H6J       0.006100
     39 H10         -3.8390    -3.6880    -1.7140 hc         1 H6J       0.026700
     40 H11         -4.7190    -3.6580    -0.0950 hc         1 H6J       0.026700
     41 H12         -2.5850    -3.2400     1.0200 h1         1 H6J       0.049700
     42 H13         -1.7360    -3.2670    -0.5440 h1         1 H6J       0.049700
     43 H14         -0.6360    -1.5850     1.0140 ha         1 H6J       0.141000
     44 H15          0.3750    -1.1480     2.9360 h1         1 H6J       0.053200
     45 H16          1.5760    -0.0960     3.6490 h1         1 H6J       0.053200
     46 H17          2.0610    -1.8180     1.1470 hc         1 H6J       0.068200
     47 H18          2.4790    -2.2640     2.7960 hc         1 H6J       0.068200
     48 H19          5.8010     2.3070    -2.4790 ha         1 H6J       0.171500
     49 H20          6.4450     1.6920    -0.8540 ha         1 H6J       0.171500
     50 H21         -4.5600     2.3450    -1.1350 ha         1 H6J       0.149000
     51 H22         -4.1610     6.6330    -1.0530 ha         1 H6J       0.110000
     52 H23         -3.9000    -1.4070    -0.7380 hn         1 H6J       0.495000
     53 N06         -3.0250    -1.6160    -0.2590 nu         1 H6J      -0.918100
@<TRIPOS>BOND
     1     1    15 1   
     2     1    21 1   
     3     1    30 1   
     4     1    31 1   
     5     2    16 2   
     6     2    29 1   
     7     2    32 1   
     8     3     4 1   
     9     3    21 1   
    10     3    33 1   
    11     3    34 1   
    12     4    20 1   
    13     4    35 1   
    14     4    36 1   
    15     5    17 1   
    16     5    18 ar  
    17     5    23 ar  
    18     6    18 ar  
    19     6    19 ar  
    20     6    37 1   
    21     7    19 ar  
    22     7    23 ar  
    23     7    38 1   
    24     8     9 1   
    25     8    25 1   
    26     8    26 1   
    27     9    10 1   
    28     9    39 1   
    29     9    40 1   
    30    10    41 1   
    31    10    42 1   
    32    10    53 1   
    33    11    12 ar  
    34    11    24 ar  
    35    11    53 1   
    36    12    13 ar  
    37    12    43 1   
    38    13    20 1   
    39    13    22 ar  
    40    14    15 1   
    41    14    20 1   
    42    14    44 1   
    43    14    45 1   
    44    15    46 1   
    45    15    47 1   
    46    16    48 1   
    47    16    49 1   
    48    17    22 ar  
    49    17    24 ar  
    50    18    50 1   
    51    19    51 1   
    52    21    29 1   
    53    27    29 2   
    54    28    29 2   
    55    52    53 1   
@<TRIPOS>SUBSTRUCTURE
     1 H6J         1 TEMP              0 ****  ****    0 ROOT
