@<TRIPOS>MOLECULE
H6J
   53    55     1     0     0
SMALL
abcg2


@<TRIPOS>ATOM
      1 C13          3.3310    -0.2520     1.3230 c3         1 H6J       0.234800
      2 C17          4.2820     1.4880    -1.4070 ce         1 H6J      -0.431100
      3 C20          2.1860     1.9860     1.3580 c3         1 H6J       0.195800
      4 C21          1.4090     1.5610     2.6140 c3         1 H6J       0.228800
      5 C24         -2.0910     2.7830    -0.4250 cp         1 H6J       0.316000
      6 C26         -3.4580     4.0950    -1.8870 ca         1 H6J      -0.093000
      7 C28         -1.7080     5.0270    -0.5750 ca         1 H6J       0.321900
      8 C02         -3.2300    -5.6300    -0.2070 c          1 H6J       0.725000
      9 C04         -3.4190    -4.1380    -0.5330 c3         1 H6J      -0.230400
     10 C05         -2.4150    -3.2140     0.1280 c3         1 H6J       0.235800
     11 C07         -1.9980    -0.7790     0.2110 ca         1 H6J       0.410900
     12 C08         -0.9660    -0.8960     1.1450 ca         1 H6J      -0.351000
     13 C09         -0.3510     0.2910     1.5500 ca         1 H6J       0.386900
     14 C11          1.3760    -0.8850     2.8240 c3         1 H6J       0.224800
     15 C12          2.3830    -1.3550     1.7780 c3         1 H6J      -0.123400
     16 C18          5.2210     0.7630    -1.9940 c2         1 H6J      -0.158000
     17 C23         -1.7040     1.4680     0.1650 cp         1 H6J       0.150000
     18 C25         -3.1360     2.8630    -1.3420 ca         1 H6J      -0.117000
     19 C27         -2.7280     5.2080    -1.5000 ca         1 H6J      -0.170000
     20 N10          0.6660     0.3280     2.4540 nh         1 H6J      -0.763300
     21 N14          2.6300     0.8180     0.6130 n3         1 H6J      -0.781500
     22 N22         -0.7490     1.4770     1.0720 nb         1 H6J      -0.274000
     23 N29         -1.3950     3.8520    -0.0490 nb         1 H6J      -0.631000
     24 N30         -2.3520     0.4140    -0.2960 nb         1 H6J      -0.308000
     25 O01         -2.3700    -5.9320     0.6420 o          1 H6J      -0.733000
     26 O03         -3.9670    -6.4180    -0.8340 o          1 H6J      -0.733000
     27 O16          1.7030     1.7810    -1.5060 o          1 H6J      -0.531000
     28 O19          2.6480    -0.5460    -1.4850 o          1 H6J      -0.531000
     29 S15          2.6910     0.8330    -1.0190 sy         1 H6J       1.173200
     30 H1           3.8530     0.1940     2.1740 h1         1 H6J       0.038700
     31 H2           4.1130    -0.6750     0.6910 h1         1 H6J       0.038700
     32 H3           4.4240     2.5200    -1.1070 h4         1 H6J       0.209000
     33 H4           1.5320     2.5770     0.7230 h1         1 H6J       0.064700
     34 H5           3.0350     2.6070     1.6630 h1         1 H6J       0.064700
     35 H6           2.0960     1.4090     3.4460 h1         1 H6J       0.052700
     36 H7           0.7480     2.3800     2.8970 h1         1 H6J       0.052700
     37 H8          -4.2650     4.1820    -2.6020 ha         1 H6J       0.111000
     38 H9          -1.1170     5.8750    -0.2470 h4         1 H6J       0.006100
     39 H10         -3.3790    -4.0100    -1.6200 hc         1 H6J       0.026700
     40 H11         -4.4330    -3.8470    -0.2380 hc         1 H6J       0.026700
     41 H12         -2.4700    -3.3220     1.2150 h1         1 H6J       0.049700
     42 H13         -1.3970    -3.4950    -0.1640 h1         1 H6J       0.049700
     43 H14         -0.6570    -1.8630     1.5090 ha         1 H6J       0.141000
     44 H15          0.6630    -1.6800     3.0460 h1         1 H6J       0.053200
     45 H16          1.8940    -0.6810     3.7630 h1         1 H6J       0.053200
     46 H17          1.8700    -1.7600     0.9050 hc         1 H6J       0.068200
     47 H18          2.9700    -2.1690     2.2110 hc         1 H6J       0.068200
     48 H19          6.1900     1.1940    -2.2060 ha         1 H6J       0.171500
     49 H20          5.0640    -0.2660    -2.2870 ha         1 H6J       0.171500
     50 H21         -3.6810     1.9730    -1.6210 ha         1 H6J       0.149000
     51 H22         -2.9370     6.1910    -1.9000 ha         1 H6J       0.110000
     52 H23         -3.3470    -1.6620    -0.9780 hn         1 H6J       0.495000
     53 N06         -2.6860    -1.8420    -0.2390 nu         1 H6J      -0.918100
@<TRIPOS>BOND
     1     1    15 1   
     2     1    21 1   
     3     1    30 1   
     4     1    31 1   
     5     2    16 2   
     6     2    29 1   
     7     2    32 1   
     8     3     4 1   
     9     3    21 1   
    10     3    33 1   
    11     3    34 1   
    12     4    20 1   
    13     4    35 1   
    14     4    36 1   
    15     5    17 1   
    16     5    18 ar  
    17     5    23 ar  
    18     6    18 ar  
    19     6    19 ar  
    20     6    37 1   
    21     7    19 ar  
    22     7    23 ar  
    23     7    38 1   
    24     8     9 1   
    25     8    25 1   
    26     8    26 1   
    27     9    10 1   
    28     9    39 1   
    29     9    40 1   
    30    10    41 1   
    31    10    42 1   
    32    10    53 1   
    33    11    12 ar  
    34    11    24 ar  
    35    11    53 1   
    36    12    13 ar  
    37    12    43 1   
    38    13    20 1   
    39    13    22 ar  
    40    14    15 1   
    41    14    20 1   
    42    14    44 1   
    43    14    45 1   
    44    15    46 1   
    45    15    47 1   
    46    16    48 1   
    47    16    49 1   
    48    17    22 ar  
    49    17    24 ar  
    50    18    50 1   
    51    19    51 1   
    52    21    29 1   
    53    27    29 2   
    54    28    29 2   
    55    52    53 1   
@<TRIPOS>SUBSTRUCTURE
     1 H6J         1 TEMP              0 ****  ****    0 ROOT
