@<TRIPOS>MOLECULE
H6K
   34    36     1     0     0
SMALL
No Charge or Current Charge


@<TRIPOS>ATOM
      1 N4          -8.3840     1.4210     0.0280 n1         1 H6K      -0.430000
      2 C6          -7.3220     0.9310    -0.0020 cg         1 H6K       0.231000
      3 C4          -6.0100     0.3380    -0.0310 ca         1 H6K       0.320000
      4 N2          -5.8520    -0.8410    -0.7080 nb         1 H6K      -0.573000
      5 C3          -4.5880    -1.3510    -0.6990 ca         1 H6K       0.236900
      6 C5          -4.9280     0.9730     0.6390 ca         1 H6K       0.381900
      7 N3          -3.6640     0.4590     0.6470 nb         1 H6K      -0.657000
      8 C2          -3.5020    -0.6970    -0.0490 ca         1 H6K       0.476900
      9 N1          -2.2190    -1.2660     0.0100 ns         1 H6K      -0.330900
     10 C1          -0.9880    -0.6590    -0.0110 c          1 H6K       0.675100
     11 O           -0.8170     0.5400    -0.1560 o          1 H6K      -0.544100
     12 N5           0.0270    -1.5700     0.1240 ns         1 H6K      -0.489400
     13 C7           1.3840    -1.3700     0.1420 cc         1 H6K       0.388900
     14 N7           2.1780    -2.4030     0.2850 nd         1 H6K      -0.576800
     15 N6           3.4490    -1.8210     0.2560 na         1 H6K       0.006800
     16 C9           3.4020    -0.4280     0.0940 cd         1 H6K      -0.075000
     17 C8           2.0690    -0.1510     0.0220 cc         1 H6K      -0.211000
     18 C10          4.5480     0.5010     0.0220 ca         1 H6K      -0.029000
     19 C15          5.8720     0.0180     0.1170 ca         1 H6K      -0.093000
     20 C14          6.9630     0.9030     0.0480 ca         1 H6K      -0.108000
     21 C13          6.7450     2.2800    -0.1170 ca         1 H6K      -0.099000
     22 C12          5.4340     2.7710    -0.2130 ca         1 H6K      -0.108000
     23 C11          4.3420     1.8880    -0.1450 ca         1 H6K      -0.093000
     24 H3          -4.4390    -2.2960    -1.2200 h4         1 H6K       0.033100
     25 H4          -5.0770     1.9060     1.1800 h4         1 H6K       0.047100
     26 H2          -2.2130    -2.2750     0.0660 hn         1 H6K       0.157000
     27 H5          -0.2750    -2.5270     0.2300 hn         1 H6K       0.330500
     28 H1           4.2930    -2.3850     0.3470 hn         1 H6K       0.376000
     29 H6           1.6120     0.8210    -0.1040 ha         1 H6K       0.172000
     30 H11          6.0670    -1.0430     0.2450 ha         1 H6K       0.115500
     31 H10          7.9780     0.5190     0.1230 ha         1 H6K       0.117500
     32 H9           7.5900     2.9630    -0.1710 ha         1 H6K       0.117000
     33 H8           5.2620     3.8380    -0.3420 ha         1 H6K       0.117500
     34 H7           3.3370     2.2920    -0.2210 ha         1 H6K       0.115500
@<TRIPOS>BOND
     1     1     2 3   
     2     2     3 1   
     3     3     4 ar  
     4     3     6 ar  
     5     4     5 ar  
     6     5     8 ar  
     7     5    24 1   
     8     6     7 ar  
     9     6    25 1   
    10     7     8 ar  
    11     8     9 1   
    12     9    10 1   
    13     9    26 1   
    14    10    11 2   
    15    10    12 1   
    16    12    13 1   
    17    12    27 1   
    18    13    14 2   
    19    13    17 1   
    20    14    15 1   
    21    15    16 1   
    22    15    28 1   
    23    16    17 2   
    24    16    18 1   
    25    17    29 1   
    26    18    19 ar  
    27    18    23 ar  
    28    19    20 ar  
    29    19    30 1   
    30    20    21 ar  
    31    20    31 1   
    32    21    22 ar  
    33    21    32 1   
    34    22    23 ar  
    35    22    33 1   
    36    23    34 1   
@<TRIPOS>SUBSTRUCTURE
     1 H6K         1 TEMP              0 ****  ****    0 ROOT
