@<TRIPOS>MOLECULE
H6K
   34    36     1     0     0
SMALL
bcc


@<TRIPOS>ATOM
      1 N4          -8.3680     1.2200     0.1690 n1         1 H6K      -0.340800
      2 C6          -7.3020     0.7840     0.1380 cg         1 H6K       0.141800
      3 C4          -5.9730     0.2610     0.0990 ca         1 H6K       0.320000
      4 N2          -5.8320    -1.0690     0.0560 nb         1 H6K      -0.573000
      5 C3          -4.6170    -1.5380     0.0180 ca         1 H6K       0.236900
      6 C5          -4.8760     1.1040     0.1050 ca         1 H6K       0.381900
      7 N3          -3.6380     0.6340     0.0660 nb         1 H6K      -0.657000
      8 C2          -3.4900    -0.6770     0.0210 ca         1 H6K       0.476900
      9 N1          -2.2560    -1.2610    -0.0290 ns         1 H6K      -0.564400
     10 C1          -1.0130    -0.6410    -0.0240 c          1 H6K       0.809100
     11 O           -0.8500     0.5560     0.0430 o          1 H6K      -0.544100
     12 N5          -0.0010    -1.5460    -0.0990 ns         1 H6K      -0.556400
     13 C7           1.3500    -1.2310    -0.1330 cc         1 H6K       0.454200
     14 N7           2.2000    -2.2200    -0.3380 nd         1 H6K      -0.576800
     15 N6           3.4000    -1.6480    -0.2980 na         1 H6K       0.006400
     16 C9           3.3520    -0.3220    -0.0860 cd         1 H6K      -0.024300
     17 C8           2.0110    -0.0010     0.0320 cc         1 H6K      -0.294300
     18 C10          4.5390     0.5240     0.0010 ca         1 H6K      -0.029000
     19 C15          5.7880    -0.0070     0.3270 ca         1 H6K      -0.111000
     20 C14          6.9030     0.8140     0.4020 ca         1 H6K      -0.126000
     21 C13          6.7870     2.1760     0.1630 ca         1 H6K      -0.117000
     22 C12          5.5460     2.7140    -0.1550 ca         1 H6K      -0.126000
     23 C11          4.4320     1.8950    -0.2400 ca         1 H6K      -0.111000
     24 H3          -4.4920    -2.6150    -0.0170 h4         1 H6K       0.033100
     25 H4          -4.9980     2.1800     0.1410 h4         1 H6K       0.047100
     26 H2          -2.2690    -2.2690    -0.0740 hn         1 H6K       0.323500
     27 H5          -0.2060    -2.5320    -0.1780 hn         1 H6K       0.330500
     28 H1           4.2140    -2.2120    -0.4830 hn         1 H6K       0.325700
     29 H6           1.5910     0.9670     0.2350 ha         1 H6K       0.190000
     30 H11          5.9010    -1.0630     0.5420 ha         1 H6K       0.133500
     31 H10          7.8640     0.3870     0.6570 ha         1 H6K       0.135500
     32 H9           7.6570     2.8170     0.2250 ha         1 H6K       0.135000
     33 H8           5.4460     3.7750    -0.3440 ha         1 H6K       0.135500
     34 H7           3.4740     2.3220    -0.5060 ha         1 H6K       0.133500
@<TRIPOS>BOND
     1     1     2 3   
     2     2     3 1   
     3     3     4 ar  
     4     3     6 ar  
     5     4     5 ar  
     6     5     8 ar  
     7     5    24 1   
     8     6     7 ar  
     9     6    25 1   
    10     7     8 ar  
    11     8     9 1   
    12     9    10 1   
    13     9    26 1   
    14    10    11 2   
    15    10    12 1   
    16    12    13 1   
    17    12    27 1   
    18    13    14 2   
    19    13    17 1   
    20    14    15 1   
    21    15    16 1   
    22    15    28 1   
    23    16    17 2   
    24    16    18 1   
    25    17    29 1   
    26    18    19 ar  
    27    18    23 ar  
    28    19    20 ar  
    29    19    30 1   
    30    20    21 ar  
    31    20    31 1   
    32    21    22 ar  
    33    21    32 1   
    34    22    23 ar  
    35    22    33 1   
    36    23    34 1   
@<TRIPOS>SUBSTRUCTURE
     1 H6K         1 TEMP              0 ****  ****    0 ROOT
