@<TRIPOS>MOLECULE
H6L
   75    76     1     0     0
SMALL
abcg2


@<TRIPOS>ATOM
      1 C26         -7.7730    17.1400    39.9800 c          1 H6L       0.614700
      2 O36         -7.5050    17.8250    40.9540 o          1 H6L      -0.590100
      3 C27         -6.7870    16.9800    38.8610 ca         1 H6L      -0.111600
      4 C28         -6.6590    15.7930    38.1450 ca         1 H6L      -0.086000
      5 C29         -5.7270    15.6820    37.1270 ca         1 H6L      -0.055000
      6 C30         -4.9310    16.7760    36.8300 ca         1 H6L      -0.160200
      7 C34         -5.0320    17.9660    37.5360 ca         1 H6L      -0.055000
      8 C35         -5.9560    18.0550    38.5620 ca         1 H6L      -0.086000
      9 N31         -3.9590    16.6750    35.7480 no         1 H6L       0.691200
     10 O32         -3.8700    15.6210    35.1640 o          1 H6L      -0.392500
     11 O33         -3.2960    17.6510    35.4910 o          1 H6L      -0.392500
     12 N25         -8.9400    16.4990    39.8030 ns         1 H6L      -0.491900
     13 C21        -10.0340    16.5270    40.7460 c3         1 H6L       0.036700
     14 C20        -10.3570    15.0820    41.1130 c          1 H6L       0.589100
     15 O37        -10.4970    14.2340    40.2430 o          1 H6L      -0.619100
     16 C22        -11.2660    17.2330    40.1480 c3         1 H6L      -0.071700
     17 C24        -10.9250    18.6680    39.7630 c3         1 H6L      -0.094600
     18 C23        -12.4410    17.2060    41.1180 c3         1 H6L      -0.094600
     19 N19        -10.4630    14.8070    42.4200 ns         1 H6L      -0.479900
     20 C14        -10.8090    13.4880    42.8920 c3         1 H6L       0.040700
     21 C13        -12.2600    13.1630    42.5330 c          1 H6L       0.588100
     22 O38        -13.1600    13.9580    42.7510 o          1 H6L      -0.606100
     23 C15        -10.6460    13.4020    44.4100 c3         1 H6L      -0.086400
     24 C16         -9.2210    13.6020    44.9300 c3         1 H6L      -0.059700
     25 C17         -8.2520    12.5650    44.3750 c3         1 H6L      -0.091100
     26 C18         -9.2360    13.5620    46.4560 c3         1 H6L      -0.091100
     27 C07        -14.1360    14.6060    38.4340 c6         1 H6L      -0.091400
     28 C03        -13.7340    11.4250    41.5900 c3         1 H6L      -0.019300
     29 C06        -14.4600    13.4820    39.4010 c6         1 H6L      -0.077400
     30 C10        -13.3160    11.9190    37.7670 c          1 H6L       0.570000
     31 C04        -13.7770    11.1220    40.0960 c3         1 H6L      -0.070400
     32 C02        -14.0850    10.2280    42.4510 c          1 H6L       0.560900
     33 C05        -13.4650    12.3380    39.2250 c6         1 H6L      -0.144700
     34 C08        -14.2800    14.1150    37.0090 c6         1 H6L       0.115000
     35 N12        -12.4520    11.9350    42.0180 ns         1 H6L      -0.492900
     36 N09        -13.6300    12.8300    36.8280 ns         1 H6L      -0.509900
     37 H12         -7.2680    14.9310    38.3830 ha         1 H6L       0.141500
     38 H32         -5.6340    14.7530    36.5840 ha         1 H6L       0.157000
     39 H33         -4.4050    18.8130    37.3000 ha         1 H6L       0.157000
     40 H34         -6.0350    18.9770    39.1220 ha         1 H6L       0.141500
     41 H37         -9.1140    16.0230    38.9310 hn         1 H6L       0.333500
     42 H7          -9.7030    17.0830    41.6250 h1         1 H6L       0.091700
     43 H8         -11.5500    16.6880    39.2400 hc         1 H6L       0.058700
     44 H9         -11.8010    19.1630    39.3420 hc         1 H6L       0.042700
     45 H10        -10.6080    19.2430    40.6360 hc         1 H6L       0.042700
     46 H11        -10.1320    18.7210    39.0180 hc         1 H6L       0.042700
     47 H29        -12.7780    16.1960    41.3470 hc         1 H6L       0.042700
     48 H30        -12.1810    17.6950    42.0600 hc         1 H6L       0.042700
     49 H31        -13.2900    17.7420    40.6920 hc         1 H6L       0.042700
     50 H36        -10.4080    15.5610    43.0870 hn         1 H6L       0.332500
     51 H24        -10.1460    12.7630    42.4140 h1         1 H6L       0.076700
     52 H2         -11.3130    14.1350    44.8740 hc         1 H6L       0.059200
     53 H3         -11.0010    12.4160    44.7280 hc         1 H6L       0.059200
     54 H25         -8.8670    14.5940    44.6300 hc         1 H6L       0.048700
     55 H4          -7.2610    12.6880    44.8130 hc         1 H6L       0.036867
     56 H5          -8.5920    11.5520    44.6040 hc         1 H6L       0.036867
     57 H6          -8.1360    12.6410    43.2930 hc         1 H6L       0.036867
     58 H26         -9.9090    14.3160    46.8690 hc         1 H6L       0.036867
     59 H27         -9.5680    12.5860    46.8190 hc         1 H6L       0.036867
     60 H28         -8.2410    13.7460    46.8630 hc         1 H6L       0.036867
     61 H20        -13.1170    14.9590    38.6130 hc         1 H6L       0.053700
     62 H21        -14.8000    15.4590    38.5830 hc         1 H6L       0.053700
     63 H14        -14.4790    12.1860    41.8500 h1         1 H6L       0.099700
     64 H18        -14.4250    13.8540    40.4250 hc         1 H6L       0.053700
     65 H19        -15.4810    13.1210    39.2310 hc         1 H6L       0.053700
     66 H15        -14.7700    10.7380    39.8490 hc         1 H6L       0.072700
     67 H16        -13.0670    10.3230    39.8790 hc         1 H6L       0.072700
     68 H13        -13.8270    10.3600    43.5180 h4         1 H6L      -0.006800
     69 H17        -12.4750    12.7200    39.5040 hc         1 H6L       0.090700
     70 H22        -13.8400    14.8260    36.3070 h1         1 H6L       0.036700
     71 H23        -15.3410    14.0300    36.7540 h1         1 H6L       0.036700
     72 H1         -11.6400    11.3760    41.8020 hn         1 H6L       0.322500
     73 H35        -13.5190    12.5150    35.8750 hn         1 H6L       0.312500
     74 O01        -14.6040     9.2220    42.0470 o          1 H6L      -0.495100
     75 O11        -12.8780    10.8180    37.4570 o          1 H6L      -0.576000
@<TRIPOS>BOND
     1     1     2 2   
     2     1     3 1   
     3     1    12 1   
     4     3     4 ar  
     5     3     8 ar  
     6     4     5 ar  
     7     4    37 1   
     8     5     6 ar  
     9     5    38 1   
    10     6     7 ar  
    11     6     9 1   
    12     7     8 ar  
    13     7    39 1   
    14     8    40 1   
    15     9    10 1   
    16     9    11 1   
    17    12    13 1   
    18    12    41 1   
    19    13    14 1   
    20    13    16 1   
    21    13    42 1   
    22    14    15 2   
    23    14    19 1   
    24    16    17 1   
    25    16    18 1   
    26    16    43 1   
    27    17    44 1   
    28    17    45 1   
    29    17    46 1   
    30    18    47 1   
    31    18    48 1   
    32    18    49 1   
    33    19    20 1   
    34    19    50 1   
    35    20    21 1   
    36    20    23 1   
    37    20    51 1   
    38    21    22 2   
    39    21    35 1   
    40    23    24 1   
    41    23    52 1   
    42    23    53 1   
    43    24    25 1   
    44    24    26 1   
    45    24    54 1   
    46    25    55 1   
    47    25    56 1   
    48    25    57 1   
    49    26    58 1   
    50    26    59 1   
    51    26    60 1   
    52    27    29 1   
    53    27    34 1   
    54    27    61 1   
    55    27    62 1   
    56    28    31 1   
    57    28    32 1   
    58    28    35 1   
    59    28    63 1   
    60    29    33 1   
    61    29    64 1   
    62    29    65 1   
    63    30    33 1   
    64    30    36 1   
    65    30    75 2   
    66    31    33 1   
    67    31    66 1   
    68    31    67 1   
    69    32    68 1   
    70    32    74 2   
    71    33    69 1   
    72    34    36 1   
    73    34    70 1   
    74    34    71 1   
    75    35    72 1   
    76    36    73 1   
@<TRIPOS>SUBSTRUCTURE
     1 H6L         1 TEMP              0 ****  ****    0 ROOT
