@<TRIPOS>MOLECULE
H6L
   75    76     1     0     0
SMALL
No Charge or Current Charge


@<TRIPOS>ATOM
      1 C26         -7.5540    17.8170    39.9740 c          1 H6L       0.614700
      2 O36         -7.9910    18.7320    40.6590 o          1 H6L      -0.590100
      3 C27         -6.1720    17.8660    39.3500 ca         1 H6L      -0.111600
      4 C28         -5.6630    16.8160    38.5470 ca         1 H6L      -0.086000
      5 C29         -4.3770    16.8980    37.9840 ca         1 H6L      -0.055000
      6 C30         -3.5640    18.0320    38.2090 ca         1 H6L      -0.160200
      7 C34         -4.0670    19.0820    39.0090 ca         1 H6L      -0.055000
      8 C35         -5.3530    18.9970    39.5690 ca         1 H6L      -0.086000
      9 N31         -2.1920    18.1190    37.6090 no         1 H6L       0.691200
     10 O32         -1.7950    17.1730    36.9150 o          1 H6L      -0.392500
     11 O33         -1.5170    19.1330    37.8340 o          1 H6L      -0.392500
     12 N25         -8.3030    16.6830    39.7370 ns         1 H6L      -0.491900
     13 C21         -9.6730    16.4350    40.2470 c3         1 H6L       0.036700
     14 C20         -9.7540    14.9670    40.7580 c          1 H6L       0.589100
     15 O37         -9.1130    14.0530    40.2540 o          1 H6L      -0.619100
     16 C22        -10.7400    16.7410    39.1430 c3         1 H6L      -0.071700
     17 C24        -10.6690    18.2040    38.6350 c3         1 H6L      -0.094600
     18 C23        -12.1890    16.4020    39.5810 c3         1 H6L      -0.094600
     19 N19        -10.6030    14.7650    41.8260 ns         1 H6L      -0.479900
     20 C14        -10.9410    13.4520    42.4170 c3         1 H6L       0.040700
     21 C13        -12.4830    13.3620    42.5840 c          1 H6L       0.588100
     22 O38        -13.1950    14.3500    42.7210 o          1 H6L      -0.606100
     23 C15        -10.2200    13.2470    43.7770 c3         1 H6L      -0.086400
     24 C16         -8.6690    13.1560    43.7150 c3         1 H6L      -0.059700
     25 C17         -8.1770    11.9050    42.9470 c3         1 H6L      -0.091100
     26 C18         -8.0570    13.1960    45.1330 c3         1 H6L      -0.091100
     27 C07        -15.3810    14.1280    38.5440 c6         1 H6L      -0.091400
     28 C03        -14.4510    11.7610    42.4770 c3         1 H6L      -0.019300
     29 C06        -15.3130    13.4510    39.9240 c6         1 H6L      -0.077400
     30 C10        -14.7270    11.3230    38.5310 c          1 H6L       0.570000
     31 C04        -14.8230    11.1880    41.0790 c3         1 H6L      -0.070400
     32 C02        -14.8280    10.8180    43.6480 c          1 H6L       0.560900
     33 C05        -14.5170    12.1150    39.8510 c6         1 H6L      -0.144700
     34 C08        -16.1030    13.2060    37.5410 c6         1 H6L       0.115000
     35 N12        -13.0050    12.0840    42.5450 ns         1 H6L      -0.492900
     36 N09        -15.6050    11.8250    37.5970 ns         1 H6L      -0.509900
     37 H12         -6.2500    15.9240    38.3440 ha         1 H6L       0.141500
     38 H32         -4.0200    16.0710    37.3720 ha         1 H6L       0.157000
     39 H33         -3.4690    19.9710    39.2020 ha         1 H6L       0.157000
     40 H34         -5.7130    19.8230    40.1810 ha         1 H6L       0.141500
     41 H37         -7.8640    15.9480    39.1970 hn         1 H6L       0.333500
     42 H7          -9.8570    17.0860    41.1110 h1         1 H6L       0.091700
     43 H8         -10.5140    16.0960    38.2840 hc         1 H6L       0.058700
     44 H9         -11.4390    18.3900    37.8770 hc         1 H6L       0.042700
     45 H10        -10.8230    18.9110    39.4590 hc         1 H6L       0.042700
     46 H11         -9.6990    18.4180    38.1720 hc         1 H6L       0.042700
     47 H29        -12.3110    15.3280    39.7620 hc         1 H6L       0.042700
     48 H30        -12.4600    16.9440    40.4960 hc         1 H6L       0.042700
     49 H31        -12.9060    16.6790    38.7990 hc         1 H6L       0.042700
     50 H36        -11.1130    15.5750    42.1620 hn         1 H6L       0.332500
     51 H24        -10.6540    12.6550    41.7200 h1         1 H6L       0.076700
     52 H2         -10.5040    14.0720    44.4420 hc         1 H6L       0.059200
     53 H3         -10.6030    12.3330    44.2480 hc         1 H6L       0.059200
     54 H25         -8.2950    14.0400    43.1830 hc         1 H6L       0.048700
     55 H4          -7.0810    11.8700    42.9300 hc         1 H6L       0.036867
     56 H5          -8.5390    10.9860    43.4250 hc         1 H6L       0.036867
     57 H6          -8.5220    11.9100    41.9080 hc         1 H6L       0.036867
     58 H26         -8.3530    14.1120    45.6590 hc         1 H6L       0.036867
     59 H27         -8.3890    12.3360    45.7280 hc         1 H6L       0.036867
     60 H28         -6.9620    13.1760    45.0850 hc         1 H6L       0.036867
     61 H20        -14.3650    14.3450    38.1850 hc         1 H6L       0.053700
     62 H21        -15.9060    15.0900    38.6120 hc         1 H6L       0.053700
     63 H14        -15.0330    12.6760    42.6450 h1         1 H6L       0.099700
     64 H18        -14.8530    14.1340    40.6500 hc         1 H6L       0.053700
     65 H19        -16.3370    13.2640    40.2790 hc         1 H6L       0.053700
     66 H15        -15.8900    10.9280    41.0790 hc         1 H6L       0.072700
     67 H16        -14.2890    10.2360    40.9560 hc         1 H6L       0.072700
     68 H13        -14.8520    11.3010    44.6500 h4         1 H6L      -0.006800
     69 H17        -13.4400    12.3260    39.8820 hc         1 H6L       0.090700
     70 H22        -15.9810    13.5920    36.5190 h1         1 H6L       0.036700
     71 H23        -17.1780    13.1870    37.7690 h1         1 H6L       0.036700
     72 H1         -12.3370    11.3260    42.4420 hn         1 H6L       0.322500
     73 H35        -15.7380    11.2450    36.7770 hn         1 H6L       0.312500
     74 O01        -15.0870     9.6250    43.5210 o          1 H6L      -0.495100
     75 O11        -14.1290    10.2840    38.3000 o          1 H6L      -0.576000
@<TRIPOS>BOND
     1     1     2 2   
     2     1     3 1   
     3     1    12 1   
     4     3     4 ar  
     5     3     8 ar  
     6     4     5 ar  
     7     4    37 1   
     8     5     6 ar  
     9     5    38 1   
    10     6     7 ar  
    11     6     9 1   
    12     7     8 ar  
    13     7    39 1   
    14     8    40 1   
    15     9    10 1   
    16     9    11 1   
    17    12    13 1   
    18    12    41 1   
    19    13    14 1   
    20    13    16 1   
    21    13    42 1   
    22    14    15 2   
    23    14    19 1   
    24    16    17 1   
    25    16    18 1   
    26    16    43 1   
    27    17    44 1   
    28    17    45 1   
    29    17    46 1   
    30    18    47 1   
    31    18    48 1   
    32    18    49 1   
    33    19    20 1   
    34    19    50 1   
    35    20    21 1   
    36    20    23 1   
    37    20    51 1   
    38    21    22 2   
    39    21    35 1   
    40    23    24 1   
    41    23    52 1   
    42    23    53 1   
    43    24    25 1   
    44    24    26 1   
    45    24    54 1   
    46    25    55 1   
    47    25    56 1   
    48    25    57 1   
    49    26    58 1   
    50    26    59 1   
    51    26    60 1   
    52    27    29 1   
    53    27    34 1   
    54    27    61 1   
    55    27    62 1   
    56    28    31 1   
    57    28    32 1   
    58    28    35 1   
    59    28    63 1   
    60    29    33 1   
    61    29    64 1   
    62    29    65 1   
    63    30    33 1   
    64    30    36 1   
    65    30    75 2   
    66    31    33 1   
    67    31    66 1   
    68    31    67 1   
    69    32    68 1   
    70    32    74 2   
    71    33    69 1   
    72    34    36 1   
    73    34    70 1   
    74    34    71 1   
    75    35    72 1   
    76    36    73 1   
@<TRIPOS>SUBSTRUCTURE
     1 H6L         1 TEMP              0 ****  ****    0 ROOT
