@<TRIPOS>MOLECULE
H6M
   52    54     1     0     0
SMALL
No Charge or Current Charge


@<TRIPOS>ATOM
      1 C02          5.2790     3.5930     0.2150 c          1 H6M       0.726000
      2 C04          5.1230     2.0760     0.1110 c3         1 H6M      -0.232400
      3 C05          3.6260     1.7530     0.1600 c3         1 H6M       0.237800
      4 C07          2.2370    -0.3900     0.0680 ca         1 H6M       0.411900
      5 C08          1.0020     0.2470     0.1770 ca         1 H6M      -0.363000
      6 C09         -0.1370    -0.5630     0.1710 ca         1 H6M       0.392900
      7 C11         -2.5190    -0.7420     0.9800 c3         1 H6M       0.224800
      8 C12         -3.2970     0.1040     2.0110 c3         1 H6M      -0.120400
      9 C13         -4.4210     0.9770     1.4070 c3         1 H6M       0.098000
     10 C15         -5.0520     2.6730    -0.3280 c          1 H6M       0.598100
     11 C16         -4.6460     3.6380    -1.4950 c3         1 H6M       0.079600
     12 C19         -2.5820     2.2740     0.1840 c3         1 H6M       0.069000
     13 C20         -1.8100     1.1600    -0.5590 c3         1 H6M       0.195800
     14 C22          1.2020    -2.4460    -0.0270 cp         1 H6M       0.143000
     15 C23          1.3210    -3.9580    -0.1370 cp         1 H6M       0.305000
     16 C24          2.5840    -4.6050    -0.2550 ca         1 H6M      -0.118000
     17 C25          2.6580    -6.0040    -0.3540 ca         1 H6M      -0.093000
     18 C26          1.4590    -6.7320    -0.3310 ca         1 H6M      -0.168000
     19 C27          0.2440    -6.0390    -0.2120 ca         1 H6M       0.320900
     20 N06          3.4320     0.3020     0.0630 nu         1 H6M      -0.919100
     21 N10         -1.4310    -0.0080     0.2800 nh         1 H6M      -0.772300
     22 N14         -4.0310     1.9720     0.3740 n          1 H6M      -0.414800
     23 N21         -0.0340    -1.9020     0.0750 nb         1 H6M      -0.271000
     24 N28          0.1740    -4.6930    -0.1170 nb         1 H6M      -0.632000
     25 N29          2.3430    -1.7190    -0.0360 nb         1 H6M      -0.312000
     26 O01          5.2600     4.2460    -0.8170 o          1 H6M      -0.731500
     27 O03          5.3650     4.0880     1.3290 o          1 H6M      -0.731500
     28 O17         -5.7570     4.1030    -2.3050 oh         1 H6M      -0.627000
     29 O18         -6.2310     2.4920    -0.0320 o          1 H6M      -0.583100
     30 H1           5.4880     1.7140    -0.8580 hc         1 H6M       0.027700
     31 H2           5.5770     1.5790     0.9770 hc         1 H6M       0.027700
     32 H3           3.1990     2.1280     1.1020 h1         1 H6M       0.049200
     33 H4           3.1130     2.2590    -0.6710 h1         1 H6M       0.049200
     34 H5           0.9260     1.3220     0.2790 ha         1 H6M       0.139000
     35 H6          -2.0920    -1.5880     1.5360 h1         1 H6M       0.069700
     36 H7          -3.2200    -1.1700     0.2510 h1         1 H6M       0.069700
     37 H8          -3.7670    -0.5840     2.7240 hc         1 H6M       0.055700
     38 H9          -2.6020     0.7180     2.5960 hc         1 H6M       0.055700
     39 H10         -5.1670     0.3030     0.9640 h1         1 H6M       0.052200
     40 H11         -4.9180     1.5130     2.2260 h1         1 H6M       0.052200
     41 H12         -4.1250     4.4940    -1.0460 h1         1 H6M       0.034700
     42 H13         -3.9240     3.1050    -2.1270 h1         1 H6M       0.034700
     43 H14         -2.1130     2.4460     1.1610 h1         1 H6M       0.060200
     44 H15         -2.4510     3.2080    -0.3730 h1         1 H6M       0.060200
     45 H16         -2.4130     0.8240    -1.4130 h1         1 H6M       0.062200
     46 H17         -0.9090     1.6200    -0.9860 h1         1 H6M       0.062200
     47 H18          3.5010    -4.0220    -0.2710 ha         1 H6M       0.150000
     48 H19          3.6180    -6.5090    -0.4450 ha         1 H6M       0.113000
     49 H20          1.4640    -7.8160    -0.4040 ha         1 H6M       0.113000
     50 H21         -0.7030    -6.5770    -0.1920 h4         1 H6M       0.011100
     51 H22          4.2660    -0.2770    -0.0210 hn         1 H6M       0.497000
     52 H24         -5.3890     4.7010    -2.9940 ho         1 H6M       0.441000
@<TRIPOS>BOND
     1     1     2 1   
     2     1    26 1   
     3     1    27 1   
     4     2     3 1   
     5     2    30 1   
     6     2    31 1   
     7     3    20 1   
     8     3    32 1   
     9     3    33 1   
    10     4     5 ar  
    11     4    20 1   
    12     4    25 ar  
    13     5     6 ar  
    14     5    34 1   
    15     6    21 1   
    16     6    23 ar  
    17     7     8 1   
    18     7    21 1   
    19     7    35 1   
    20     7    36 1   
    21     8     9 1   
    22     8    37 1   
    23     8    38 1   
    24     9    22 1   
    25     9    39 1   
    26     9    40 1   
    27    10    11 1   
    28    10    22 1   
    29    10    29 2   
    30    11    28 1   
    31    11    41 1   
    32    11    42 1   
    33    12    13 1   
    34    12    22 1   
    35    12    43 1   
    36    12    44 1   
    37    13    21 1   
    38    13    45 1   
    39    13    46 1   
    40    14    15 1   
    41    14    23 ar  
    42    14    25 ar  
    43    15    16 ar  
    44    15    24 ar  
    45    16    17 ar  
    46    16    47 1   
    47    17    18 ar  
    48    17    48 1   
    49    18    19 ar  
    50    18    49 1   
    51    19    24 ar  
    52    19    50 1   
    53    20    51 1   
    54    28    52 1   
@<TRIPOS>SUBSTRUCTURE
     1 H6M         1 TEMP              0 ****  ****    0 ROOT
