@<TRIPOS>MOLECULE
H6M
   52    54     1     0     0
SMALL
bcc


@<TRIPOS>ATOM
      1 C02          5.1560     3.6700    -0.4690 c          1 H6M       0.936600
      2 C04          4.8830     2.1710    -0.2440 c3         1 H6M      -0.232400
      3 C05          3.4220     1.7760    -0.3370 c3         1 H6M       0.237800
      4 C07          2.1120    -0.3130    -0.1640 ca         1 H6M       0.740200
      5 C08          0.8930     0.3280    -0.4020 ca         1 H6M      -0.511600
      6 C09         -0.2500    -0.4760    -0.4360 ca         1 H6M       0.721200
      7 C11         -2.6580    -0.8100    -0.3690 c3         1 H6M       0.224800
      8 C12         -3.0420    -0.6920     1.1090 c3         1 H6M      -0.120400
      9 C13         -3.9670     0.4780     1.4490 c3         1 H6M       0.098000
     10 C15         -4.7150     2.4660     0.2830 c          1 H6M       0.665100
     11 C16         -4.3610     3.7300    -0.4930 c3         1 H6M       0.056400
     12 C19         -2.2980     2.0560     0.4530 c3         1 H6M       0.069000
     13 C20         -1.7580     1.4170    -0.8310 c3         1 H6M       0.195800
     14 C22          1.0380    -2.3000    -0.0070 cp         1 H6M       0.669000
     15 C23          1.1250    -3.7740     0.2140 cp         1 H6M       0.370300
     16 C24          2.3500    -4.3700     0.5080 ca         1 H6M      -0.201300
     17 C25          2.3960    -5.7400     0.7050 ca         1 H6M      -0.111000
     18 C26          1.2230    -6.4710     0.6020 ca         1 H6M      -0.251300
     19 C27          0.0530    -5.7850     0.3050 ca         1 H6M       0.386200
     20 N06          3.2750     0.3540    -0.1120 nu         1 H6M      -0.863900
     21 N10         -1.4980     0.0030    -0.7040 nh         1 H6M      -0.772300
     22 N14         -3.6830     1.7050     0.7140 n          1 H6M      -0.481800
     23 N21         -0.1620    -1.7990    -0.2230 nb         1 H6M      -0.797000
     24 N28          0.0000    -4.4750     0.1160 nb         1 H6M      -0.632000
     25 N29          2.1810    -1.6410     0.0330 nb         1 H6M      -0.838000
     26 O01          6.3520     4.0170    -0.4170 o          1 H6M      -0.836800
     27 O03          4.1740     4.4070    -0.6800 o          1 H6M      -0.836800
     28 O17         -5.5480     4.3000    -0.9590 oh         1 H6M      -0.564800
     29 O18         -5.8830     2.1890     0.5010 o          1 H6M      -0.583100
     30 H1           5.4680     1.5970    -0.9720 hc         1 H6M       0.027700
     31 H2           5.2790     1.8910     0.7380 hc         1 H6M       0.027700
     32 H3           2.8370     2.3360     0.3990 h1         1 H6M       0.049200
     33 H4           3.0240     2.0410    -1.3210 h1         1 H6M       0.049200
     34 H5           0.8600     1.3980    -0.5330 ha         1 H6M       0.157000
     35 H6          -2.4350    -1.8450    -0.6070 h1         1 H6M       0.069700
     36 H7          -3.4850    -0.4980    -1.0120 h1         1 H6M       0.069700
     37 H8          -3.5610    -1.6010     1.4200 hc         1 H6M       0.055700
     38 H9          -2.1300    -0.6560     1.7090 hc         1 H6M       0.055700
     39 H10         -4.9910     0.1940     1.2210 h1         1 H6M       0.052200
     40 H11         -3.9230     0.6700     2.5250 h1         1 H6M       0.052200
     41 H12         -3.8120     4.4100     0.1740 h1         1 H6M       0.034700
     42 H13         -3.6740     3.4840    -1.3140 h1         1 H6M       0.034700
     43 H14         -1.6910     1.7550     1.3090 h1         1 H6M       0.060200
     44 H15         -2.1890     3.1370     0.3890 h1         1 H6M       0.060200
     45 H16         -2.4870     1.5590    -1.6330 h1         1 H6M       0.062200
     46 H17         -0.8600     1.9400    -1.1480 h1         1 H6M       0.062200
     47 H18          3.2420    -3.7660     0.5790 ha         1 H6M       0.168000
     48 H19          3.3330    -6.2290     0.9370 ha         1 H6M       0.131000
     49 H20          1.2070    -7.5430     0.7450 ha         1 H6M       0.131000
     50 H21         -0.8850    -6.3240     0.2150 h4         1 H6M       0.011100
     51 H22          4.0990    -0.1990     0.0610 hn         1 H6M       0.441800
     52 H24         -5.3150     5.1160    -1.4120 ho         1 H6M       0.402000
@<TRIPOS>BOND
     1     1     2 1   
     2     1    26 1   
     3     1    27 1   
     4     2     3 1   
     5     2    30 1   
     6     2    31 1   
     7     3    20 1   
     8     3    32 1   
     9     3    33 1   
    10     4     5 ar  
    11     4    20 1   
    12     4    25 ar  
    13     5     6 ar  
    14     5    34 1   
    15     6    21 1   
    16     6    23 ar  
    17     7     8 1   
    18     7    21 1   
    19     7    35 1   
    20     7    36 1   
    21     8     9 1   
    22     8    37 1   
    23     8    38 1   
    24     9    22 1   
    25     9    39 1   
    26     9    40 1   
    27    10    11 1   
    28    10    22 1   
    29    10    29 2   
    30    11    28 1   
    31    11    41 1   
    32    11    42 1   
    33    12    13 1   
    34    12    22 1   
    35    12    43 1   
    36    12    44 1   
    37    13    21 1   
    38    13    45 1   
    39    13    46 1   
    40    14    15 1   
    41    14    23 ar  
    42    14    25 ar  
    43    15    16 ar  
    44    15    24 ar  
    45    16    17 ar  
    46    16    47 1   
    47    17    18 ar  
    48    17    48 1   
    49    18    19 ar  
    50    18    49 1   
    51    19    24 ar  
    52    19    50 1   
    53    20    51 1   
    54    28    52 1   
@<TRIPOS>SUBSTRUCTURE
     1 H6M         1 TEMP              0 ****  ****    0 ROOT
