@<TRIPOS>MOLECULE
H6N
   16    16     1     0     0
SMALL
No Charge or Current Charge


@<TRIPOS>ATOM
      1 O2          -3.5820    -0.0100     0.0640 o          1 H6N      -0.520100
      2 C           -2.5880     0.7090     0.0880 c          1 H6N       0.587500
      3 C1          -1.1790     0.1780     0.0320 ca         1 H6N      -0.207600
      4 C2          -0.0870     1.0750     0.0630 ca         1 H6N      -0.117000
      5 C3           1.2310     0.5880     0.0120 ca         1 H6N       0.025100
      6 O3           2.2910     1.4580     0.0420 oh         1 H6N      -0.557100
      7 C4           1.4620    -0.8000    -0.0720 ca         1 H6N       0.156100
      8 O4           2.7430    -1.2630    -0.1210 oh         1 H6N      -0.526100
      9 C5           0.3840    -1.6960    -0.1040 ca         1 H6N      -0.143000
     10 C6          -0.9340    -1.2110    -0.0520 ca         1 H6N      -0.037000
     11 H1          -2.6890     1.8160     0.1530 h4         1 H6N      -0.015800
     12 H2          -0.2690     2.1460     0.1280 ha         1 H6N       0.115000
     13 H3           1.9500     2.3790     0.1010 ho         1 H6N       0.477000
     14 H4           3.3150    -0.4640    -0.0860 ho         1 H6N       0.487000
     15 H5           0.5690    -2.7660    -0.1680 ha         1 H6N       0.137000
     16 H6          -1.7640    -1.9170    -0.0770 ha         1 H6N       0.138000
@<TRIPOS>BOND
     1     1     2 2   
     2     2     3 1   
     3     2    11 1   
     4     3     4 ar  
     5     3    10 ar  
     6     4     5 ar  
     7     4    12 1   
     8     5     6 1   
     9     5     7 ar  
    10     6    13 1   
    11     7     8 1   
    12     7     9 ar  
    13     8    14 1   
    14     9    10 ar  
    15     9    15 1   
    16    10    16 1   
@<TRIPOS>SUBSTRUCTURE
     1 H6N         1 TEMP              0 ****  ****    0 ROOT
