@<TRIPOS>MOLECULE
H6N
   16    16     1     0     0
SMALL
bcc


@<TRIPOS>ATOM
      1 O2          -3.5560     0.0040     0.0590 o          1 H6N      -0.520100
      2 C           -2.5530     0.6830     0.0840 c          1 H6N       0.587500
      3 C1          -1.1870     0.1610     0.0330 ca         1 H6N      -0.207600
      4 C2          -0.1240     1.0670     0.0680 ca         1 H6N      -0.135000
      5 C3           1.1810     0.6200     0.0200 ca         1 H6N       0.025100
      6 O3           2.2670     1.4220     0.0500 oh         1 H6N      -0.518100
      7 C4           1.4390    -0.7580    -0.0670 ca         1 H6N       0.156100
      8 O4           2.6900    -1.2340    -0.1180 oh         1 H6N      -0.487100
      9 C5           0.3770    -1.6570    -0.1000 ca         1 H6N      -0.161000
     10 C6          -0.9280    -1.2050    -0.0510 ca         1 H6N      -0.055000
     11 H1          -2.6200     1.7840     0.1500 h4         1 H6N      -0.015800
     12 H2          -0.3240     2.1310     0.1350 ha         1 H6N       0.133000
     13 H3           2.0120     2.3510     0.0810 ho         1 H6N       0.438000
     14 H4           3.3330    -0.5150    -0.0960 ho         1 H6N       0.448000
     15 H5           0.5900    -2.7170    -0.1670 ha         1 H6N       0.155000
     16 H6          -1.7430    -1.9150    -0.0790 ha         1 H6N       0.156000
@<TRIPOS>BOND
     1     1     2 2   
     2     2     3 1   
     3     2    11 1   
     4     3     4 ar  
     5     3    10 ar  
     6     4     5 ar  
     7     4    12 1   
     8     5     6 1   
     9     5     7 ar  
    10     6    13 1   
    11     7     8 1   
    12     7     9 ar  
    13     8    14 1   
    14     9    10 ar  
    15     9    15 1   
    16    10    16 1   
@<TRIPOS>SUBSTRUCTURE
     1 H6N         1 TEMP              0 ****  ****    0 ROOT
