@<TRIPOS>MOLECULE
H6O
   55    56     1     0     0
SMALL
No Charge or Current Charge


@<TRIPOS>ATOM
      1 C10         -5.2600     1.6800   -14.9660 ca         1 H6O      -0.127900
      2 C13         -4.5400    -1.2720   -12.8110 c3         1 H6O      -0.076400
      3 C17         -2.4060    -3.5170   -15.9470 ca         1 H6O      -0.202000
      4 C20          0.2800    -2.7470   -16.2370 ca         1 H6O      -0.076000
      5 C21         -0.5080    -2.1530   -15.2300 ca         1 H6O      -0.113300
      6 C22          0.1160    -1.0980   -14.3160 c3         1 H6O      -0.013100
      7 C24          1.2000    -0.6900   -11.9590 c3         1 H6O       0.173300
      8 C26          2.4880     0.0230   -12.4750 c3         1 H6O       0.124600
      9 C01         -2.6320     0.4830   -16.8180 c3         1 H6O      -0.083100
     10 C02         -4.1490     0.6330   -17.0450 c3         1 H6O      -0.131700
     11 C03         -4.7390     1.8110   -16.2750 ca         1 H6O       0.185300
     12 N04         -4.7220     3.0080   -16.8990 nb         1 H6O      -0.279000
     13 C05         -5.2280     4.0430   -16.2170 ca         1 H6O       0.400900
     14 N06         -5.2130     5.2390   -16.8480 nv         1 H6O      -1.045900
     15 N07         -5.7610     4.0390   -14.9900 nb         1 H6O      -0.323000
     16 C08         -5.7740     2.8550   -14.3680 ca         1 H6O       0.396900
     17 N09         -6.3650     2.8680   -13.1420 nv         1 H6O      -1.062900
     18 O11         -5.2740     0.4490   -14.3340 os         1 H6O      -0.356100
     19 C12         -4.4490     0.2240   -13.1760 c3         1 H6O       0.151600
     20 C14         -4.0130    -2.2140   -13.9140 c3         1 H6O       0.166600
     21 O15         -2.6140    -1.9410   -14.0940 os         1 H6O      -0.350100
     22 C16         -1.8600    -2.5420   -15.0830 ca         1 H6O       0.150100
     23 C18         -1.6120    -4.1000   -16.9480 ca         1 H6O      -0.074000
     24 C19         -0.2700    -3.7150   -17.0920 ca         1 H6O      -0.149000
     25 C23          0.5730    -1.6970   -12.9620 c3         1 H6O      -0.060400
     26 O25          0.2140     0.2900   -11.5920 oh         1 H6O      -0.657000
     27 H132        -3.9750    -1.4510   -11.8890 hc         1 H6O       0.058200
     28 H131        -5.5840    -1.5250   -12.5940 hc         1 H6O       0.058200
     29 H171        -3.4400    -3.8360   -15.8580 ha         1 H6O       0.115000
     30 H201         1.3220    -2.4580   -16.3580 ha         1 H6O       0.112000
     31 H221         0.9750    -0.6360   -14.8170 hc         1 H6O       0.051700
     32 H222        -0.5970    -0.2850   -14.1350 hc         1 H6O       0.051700
     33 H241         1.4820    -1.2610   -11.0640 h1         1 H6O       0.037700
     34 H261         2.2420     0.6340   -13.3540 h1         1 H6O       0.021200
     35 H262         2.8510     0.7050   -11.6940 h1         1 H6O       0.021200
     36 H012        -2.2480    -0.3980   -17.3460 hc         1 H6O       0.039367
     37 H011        -2.0960     1.3670   -17.1840 hc         1 H6O       0.039367
     38 H013        -2.4130     0.3680   -15.7500 hc         1 H6O       0.039367
     39 H021        -4.3380     0.7500   -18.1190 hc         1 H6O       0.060700
     40 H022        -4.6460    -0.3000   -16.7530 hc         1 H6O       0.060700
     41 H062        -5.0290     5.2540   -17.8480 hn         1 H6O       0.482000
     42 H061        -5.7760     5.9960   -16.4700 hn         1 H6O       0.482000
     43 H092        -6.9210     3.6810   -12.8940 hn         1 H6O       0.488000
     44 H091        -6.6690     1.9770   -12.7590 hn         1 H6O       0.488000
     45 H121        -3.4040     0.4900   -13.3880 h1         1 H6O       0.043200
     46 H122        -4.7870     0.8270   -12.3250 h1         1 H6O       0.043200
     47 H142        -4.1660    -3.2570   -13.6080 h1         1 H6O       0.039200
     48 H141        -4.5700    -2.0390   -14.8430 h1         1 H6O       0.039200
     49 H181        -2.0360    -4.8510   -17.6120 ha         1 H6O       0.109000
     50 H191         0.3440    -4.1680   -17.8670 ha         1 H6O       0.114000
     51 H232        -0.2880    -2.1750   -12.4790 hc         1 H6O       0.057200
     52 H231         1.2940    -2.5000   -13.1570 hc         1 H6O       0.057200
     53 H251         0.5790     0.7960   -10.8330 ho         1 H6O       0.438000
     54 H271         4.2990    -0.4080   -13.1060 ho         1 H6O       0.444000
     55 O27          3.5170    -0.9240   -12.8050 oh         1 H6O      -0.657000
@<TRIPOS>BOND
     1     1    11 ar  
     2     1    16 ar  
     3     1    18 1   
     4     2    19 1   
     5     2    20 1   
     6     2    27 1   
     7     2    28 1   
     8     3    22 ar  
     9     3    23 ar  
    10     3    29 1   
    11     4     5 ar  
    12     4    24 ar  
    13     4    30 1   
    14     5     6 1   
    15     5    22 ar  
    16     6    25 1   
    17     6    31 1   
    18     6    32 1   
    19     7     8 1   
    20     7    25 1   
    21     7    26 1   
    22     7    33 1   
    23     8    34 1   
    24     8    35 1   
    25     8    55 1   
    26     9    10 1   
    27     9    36 1   
    28     9    37 1   
    29     9    38 1   
    30    10    11 1   
    31    10    39 1   
    32    10    40 1   
    33    11    12 ar  
    34    12    13 ar  
    35    13    14 1   
    36    13    15 ar  
    37    14    41 1   
    38    14    42 1   
    39    15    16 ar  
    40    16    17 1   
    41    17    43 1   
    42    17    44 1   
    43    18    19 1   
    44    19    45 1   
    45    19    46 1   
    46    20    21 1   
    47    20    47 1   
    48    20    48 1   
    49    21    22 1   
    50    23    24 ar  
    51    23    49 1   
    52    24    50 1   
    53    25    51 1   
    54    25    52 1   
    55    26    53 1   
    56    54    55 1   
@<TRIPOS>SUBSTRUCTURE
     1 H6O         1 TEMP              0 ****  ****    0 ROOT
