@<TRIPOS>MOLECULE
H6O
   55    56     1     0     0
SMALL
bcc


@<TRIPOS>ATOM
      1 C10         -5.3570     1.6020   -15.0270 ca         1 H6O      -0.258500
      2 C13         -4.4390    -1.1100   -12.7730 c3         1 H6O      -0.076400
      3 C17         -2.5420    -3.5010   -15.8070 ca         1 H6O      -0.220000
      4 C20          0.1100    -2.8520   -16.2270 ca         1 H6O      -0.094000
      5 C21         -0.5910    -2.1740   -15.2380 ca         1 H6O      -0.113300
      6 C22          0.1010    -1.1450   -14.3870 c3         1 H6O      -0.013100
      7 C24          1.2890    -0.7600   -12.1300 c3         1 H6O       0.150100
      8 C26          2.6260    -0.3090   -12.7140 c3         1 H6O       0.101400
      9 C01         -2.1270     1.2620   -16.3790 c3         1 H6O      -0.083100
     10 C02         -3.5780     0.8810   -16.6660 c3         1 H6O      -0.131700
     11 C03         -4.5470     1.8820   -16.1070 ca         1 H6O       0.513600
     12 N04         -4.5810     3.0740   -16.7160 nb         1 H6O      -0.805000
     13 C05         -5.4290     3.9740   -16.2320 ca         1 H6O       0.926900
     14 N06         -5.4200     5.2070   -16.8040 nv         1 H6O      -0.935500
     15 N07         -6.2740     3.7960   -15.2150 nb         1 H6O      -0.849000
     16 C08         -6.2470     2.6160   -14.6090 ca         1 H6O       0.725200
     17 N09         -7.0800     2.4170   -13.5670 nv         1 H6O      -0.952500
     18 O11         -5.3550     0.3970   -14.3840 os         1 H6O      -0.332900
     19 C12         -4.4550     0.3160   -13.2790 c3         1 H6O       0.128400
     20 C14         -3.9390    -2.1220   -13.7840 c3         1 H6O       0.143400
     21 O15         -2.5860    -1.8190   -14.0750 os         1 H6O      -0.326900
     22 C16         -1.9400    -2.5080   -15.0370 ca         1 H6O       0.150100
     23 C18         -1.8100    -4.1610   -16.7880 ca         1 H6O      -0.092000
     24 C19         -0.4820    -3.8400   -17.0060 ca         1 H6O      -0.167000
     25 C23          0.5160    -1.7170   -13.0280 c3         1 H6O      -0.060400
     26 O25          0.4730     0.3670   -11.8790 oh         1 H6O      -0.594800
     27 H132        -3.8210    -1.1490   -11.8730 hc         1 H6O       0.058200
     28 H131        -5.4470    -1.4050   -12.4690 hc         1 H6O       0.058200
     29 H171        -3.5770    -3.7750   -15.6560 ha         1 H6O       0.133000
     30 H201         1.1510    -2.5950   -16.3880 ha         1 H6O       0.130000
     31 H221         0.9850    -0.8000   -14.9290 hc         1 H6O       0.051700
     32 H222        -0.5350    -0.2700   -14.2460 hc         1 H6O       0.051700
     33 H241         1.5020    -1.2960   -11.1930 h1         1 H6O       0.037700
     34 H261         2.4520     0.2700   -13.6300 h1         1 H6O       0.021200
     35 H262         3.1040     0.3720   -11.9960 h1         1 H6O       0.021200
     36 H012        -1.4470     0.5240   -16.8040 hc         1 H6O       0.039367
     37 H011        -1.8840     2.2340   -16.8060 hc         1 H6O       0.039367
     38 H013        -1.9350     1.3080   -15.3060 hc         1 H6O       0.039367
     39 H021        -3.7280     0.8340   -17.7470 hc         1 H6O       0.060700
     40 H022        -3.7840    -0.1150   -16.2750 hc         1 H6O       0.060700
     41 H062        -5.0040     5.2820   -17.7170 hn         1 H6O       0.426800
     42 H061        -6.2230     5.7930   -16.6470 hn         1 H6O       0.426800
     43 H092        -7.8190     3.0860   -13.4270 hn         1 H6O       0.432800
     44 H091        -7.2680     1.4790   -13.2580 hn         1 H6O       0.432800
     45 H121        -3.4530     0.6310   -13.5860 h1         1 H6O       0.043200
     46 H122        -4.7770     0.9910   -12.4790 h1         1 H6O       0.043200
     47 H142        -4.0210    -3.1340   -13.3730 h1         1 H6O       0.039200
     48 H141        -4.5490    -2.0880   -14.6920 h1         1 H6O       0.039200
     49 H181        -2.2920    -4.9290   -17.3800 ha         1 H6O       0.127000
     50 H191         0.0920    -4.3480   -17.7700 ha         1 H6O       0.132000
     51 H232        -0.3720    -2.0490   -12.4850 hc         1 H6O       0.057200
     52 H231         1.1270    -2.6080   -13.1840 hc         1 H6O       0.057200
     53 H251         0.8980     0.9140   -11.2120 ho         1 H6O       0.399000
     54 H271         4.2680    -1.1510   -13.3100 ho         1 H6O       0.405000
     55 O27          3.4250    -1.4450   -12.9530 oh         1 H6O      -0.594800
@<TRIPOS>BOND
     1     1    11 ar  
     2     1    16 ar  
     3     1    18 1   
     4     2    19 1   
     5     2    20 1   
     6     2    27 1   
     7     2    28 1   
     8     3    22 ar  
     9     3    23 ar  
    10     3    29 1   
    11     4     5 ar  
    12     4    24 ar  
    13     4    30 1   
    14     5     6 1   
    15     5    22 ar  
    16     6    25 1   
    17     6    31 1   
    18     6    32 1   
    19     7     8 1   
    20     7    25 1   
    21     7    26 1   
    22     7    33 1   
    23     8    34 1   
    24     8    35 1   
    25     8    55 1   
    26     9    10 1   
    27     9    36 1   
    28     9    37 1   
    29     9    38 1   
    30    10    11 1   
    31    10    39 1   
    32    10    40 1   
    33    11    12 ar  
    34    12    13 ar  
    35    13    14 1   
    36    13    15 ar  
    37    14    41 1   
    38    14    42 1   
    39    15    16 ar  
    40    16    17 1   
    41    17    43 1   
    42    17    44 1   
    43    18    19 1   
    44    19    45 1   
    45    19    46 1   
    46    20    21 1   
    47    20    47 1   
    48    20    48 1   
    49    21    22 1   
    50    23    24 ar  
    51    23    49 1   
    52    24    50 1   
    53    25    51 1   
    54    25    52 1   
    55    26    53 1   
    56    54    55 1   
@<TRIPOS>SUBSTRUCTURE
     1 H6O         1 TEMP              0 ****  ****    0 ROOT
