@<TRIPOS>MOLECULE
H6Q
   39    39     1     0     0
SMALL
abcg2


@<TRIPOS>ATOM
      1 C8           5.2900    -0.0660     0.0370 c3         1 H6Q       0.166600
      2 C5           1.5780     0.8200    -0.5430 c6         1 H6Q       0.159300
      3 C6           3.0550     1.0790    -0.2540 c6         1 H6Q       0.088300
      4 O6          -0.2550    -0.6410    -0.0540 os         1 H6Q      -0.580400
      5 C2          -3.7800     0.7140     0.0480 c3         1 H6Q       0.205300
      6 C4           1.0400    -0.2720     0.3670 c6         1 H6Q       0.224300
      7 C1          -4.4900    -0.1170    -1.0330 c3         1 H6Q       0.381300
      8 O2          -5.8500    -0.0970    -0.6820 oh         1 H6Q      -0.726000
      9 C3          -4.1380     2.1840    -0.0460 c3         1 H6Q      -0.086100
     10 P1          -1.5800    -0.4630     0.8760 p5         1 H6Q       1.425800
     11 O4          -1.2490     0.1590     2.1920 o          1 H6Q      -0.813000
     12 O5          -2.3690     0.5890    -0.1000 os         1 H6Q      -0.595400
     13 O7           0.8000     1.9710    -0.3510 oh         1 H6Q      -0.623000
     14 O8           3.5060     2.0070    -1.2160 oh         1 H6Q      -0.727000
     15 C7           3.8290    -0.2410    -0.3150 c6         1 H6Q       0.161300
     16 O9           5.9540    -1.2930    -0.1450 oh         1 H6Q      -0.705000
     17 OX1          3.2610    -1.1470     0.6080 os         1 H6Q      -0.490000
     18 C9           1.9360    -1.5050     0.2910 c6         1 H6Q       0.377300
     19 OX2          1.4970    -2.4230     1.2180 oh         1 H6Q      -0.609000
     20 H1           5.7090     0.7160    -0.6060 h1         1 H6Q       0.019200
     21 H2           5.3690     0.2910     1.0740 h1         1 H6Q       0.019200
     22 H3           1.5020     0.4650    -1.5850 h1         1 H6Q       0.046700
     23 H4           3.1450     1.4880     0.7620 h1         1 H6Q       0.056700
     24 H5          -4.1040     0.3370     1.0280 h1         1 H6Q       0.048700
     25 H6           1.0320     0.0910     1.4010 h1         1 H6Q       0.093700
     26 H7          -3.4660    -1.6630    -0.3700 ho         1 H6Q       0.481000
     27 H8          -6.3690    -0.3660    -1.4470 ho         1 H6Q       0.481000
     28 H11         -3.8530     2.5970    -1.0160 hc         1 H6Q       0.030367
     29 H13          1.1270     2.6500    -0.9510 ho         1 H6Q       0.437000
     30 H14          4.2110     2.5370    -0.8360 ho         1 H6Q       0.496000
     31 H15          3.7580    -0.6420    -1.3400 h1         1 H6Q       0.052700
     32 H16          6.8870    -1.1580     0.0430 ho         1 H6Q       0.492000
     33 H17          1.9090    -1.9130    -0.7350 h2         1 H6Q       0.024700
     34 H18          1.8250    -3.2970     0.9820 ho         1 H6Q       0.445000
     35 H19         -4.3510     0.3790    -2.0060 h2         1 H6Q       0.020700
     36 H9          -5.2080     2.3320     0.0850 hc         1 H6Q       0.030367
     37 O1          -4.0060    -1.4100    -1.1600 oh         1 H6Q      -0.726000
     38 O3          -2.3480    -1.7670     0.8470 o          1 H6Q      -0.813000
     39 H10         -3.6240     2.7510     0.7300 hc         1 H6Q       0.030367
@<TRIPOS>BOND
     1     1    15 1   
     2     1    16 1   
     3     1    20 1   
     4     1    21 1   
     5     2     3 1   
     6     2     6 1   
     7     2    13 1   
     8     2    22 1   
     9     3    14 1   
    10     3    15 1   
    11     3    23 1   
    12     4     6 1   
    13     4    10 1   
    14     5     7 1   
    15     5     9 1   
    16     5    12 1   
    17     5    24 1   
    18     6    18 1   
    19     6    25 1   
    20     7     8 1   
    21     7    35 1   
    22     7    37 1   
    23     8    27 1   
    24     9    28 1   
    25     9    36 1   
    26     9    39 1   
    27    10    11 1   
    28    10    12 1   
    29    10    38 1   
    30    13    29 1   
    31    14    30 1   
    32    15    17 1   
    33    15    31 1   
    34    16    32 1   
    35    17    18 1   
    36    18    19 1   
    37    18    33 1   
    38    19    34 1   
    39    26    37 1   
@<TRIPOS>SUBSTRUCTURE
     1 H6Q         1 TEMP              0 ****  ****    0 ROOT
