@<TRIPOS>MOLECULE
H6Q
   39    39     1     0     0
SMALL
No Charge or Current Charge


@<TRIPOS>ATOM
      1 C8           4.8460     0.2770    -0.2910 c3         1 H6Q       0.166600
      2 C5           0.9170     0.4050    -0.8410 c6         1 H6Q       0.159300
      3 C6           2.3590     0.9760    -0.6770 c6         1 H6Q       0.088300
      4 O6          -0.7500    -1.1440     0.1970 os         1 H6Q      -0.580400
      5 C2          -3.4070     0.8110     0.4700 c3         1 H6Q       0.205300
      6 C4           0.5830    -0.5810     0.3230 c6         1 H6Q       0.224300
      7 C1          -3.3740     0.1900    -0.9950 c3         1 H6Q       0.381300
      8 O2          -4.3080     0.8320    -1.8430 oh         1 H6Q      -0.726000
      9 C3          -3.3960     2.3570     0.4870 c3         1 H6Q      -0.086100
     10 P1          -1.7590    -1.0950     1.4510 p5         1 H6Q       1.425800
     11 O4          -1.0720    -1.3000     2.7580 o          1 H6Q      -0.813000
     12 O5          -2.2800     0.4190     1.2930 os         1 H6Q      -0.595400
     13 O7          -0.0130     1.4960    -0.9370 oh         1 H6Q      -0.623000
     14 O8           2.6650     1.8450    -1.7930 oh         1 H6Q      -0.727000
     15 C7           3.3780    -0.2060    -0.5500 c6         1 H6Q       0.161300
     16 O9           5.7810    -0.8040    -0.1120 oh         1 H6Q      -0.705000
     17 OX1          2.9860    -1.0720     0.5490 os         1 H6Q      -0.490000
     18 C9           1.7020    -1.6800     0.3770 c6         1 H6Q       0.377300
     19 OX2          1.5720    -2.5660     1.4720 oh         1 H6Q      -0.609000
     20 H1           5.1610     0.8980    -1.1400 h1         1 H6Q       0.019200
     21 H2           4.8430     0.9190     0.6000 h1         1 H6Q       0.019200
     22 H3           0.8910    -0.1720    -1.7770 h1         1 H6Q       0.046700
     23 H4           2.3920     1.5510     0.2620 h1         1 H6Q       0.056700
     24 H5          -4.3390     0.4840     0.9520 h1         1 H6Q       0.048700
     25 H6           0.6450    -0.0080     1.2600 h1         1 H6Q       0.093700
     26 H7          -3.5540    -1.5460    -0.1390 ho         1 H6Q       0.481000
     27 H8          -4.0840     0.5180    -2.7440 ho         1 H6Q       0.481000
     28 H11         -2.5320     2.7470    -0.0630 hc         1 H6Q       0.030367
     29 H13          0.4490     2.1630    -1.4920 ho         1 H6Q       0.437000
     30 H14          3.3940     2.4490    -1.5140 ho         1 H6Q       0.496000
     31 H15          3.3720    -0.7930    -1.4800 h1         1 H6Q       0.052700
     32 H16          6.6480    -0.3980     0.1210 ho         1 H6Q       0.492000
     33 H17          1.6950    -2.2570    -0.5600 h2         1 H6Q       0.024700
     34 H18          2.4810    -2.6120     1.8320 ho         1 H6Q       0.445000
     35 H19         -2.3710     0.2850    -1.4280 h2         1 H6Q       0.020700
     36 H9          -4.3070     2.7600     0.0290 hc         1 H6Q       0.030367
     37 O1          -3.7870    -1.1650    -1.0350 oh         1 H6Q      -0.726000
     38 O3          -2.8980    -2.0390     1.2570 o          1 H6Q      -0.813000
     39 H10         -3.3500     2.7310     1.5170 hc         1 H6Q       0.030367
@<TRIPOS>BOND
     1     1    15 1   
     2     1    16 1   
     3     1    20 1   
     4     1    21 1   
     5     2     3 1   
     6     2     6 1   
     7     2    13 1   
     8     2    22 1   
     9     3    14 1   
    10     3    15 1   
    11     3    23 1   
    12     4     6 1   
    13     4    10 1   
    14     5     7 1   
    15     5     9 1   
    16     5    12 1   
    17     5    24 1   
    18     6    18 1   
    19     6    25 1   
    20     7     8 1   
    21     7    35 1   
    22     7    37 1   
    23     8    27 1   
    24     9    28 1   
    25     9    36 1   
    26     9    39 1   
    27    10    11 1   
    28    10    12 1   
    29    10    38 1   
    30    13    29 1   
    31    14    30 1   
    32    15    17 1   
    33    15    31 1   
    34    16    32 1   
    35    17    18 1   
    36    18    19 1   
    37    18    33 1   
    38    19    34 1   
    39    26    37 1   
@<TRIPOS>SUBSTRUCTURE
     1 H6Q         1 TEMP              0 ****  ****    0 ROOT
