@<TRIPOS>MOLECULE
H6R
   51    52     1     0     0
SMALL
bcc


@<TRIPOS>ATOM
      1 C08        -11.7780    12.0170    69.7270 c          1 H6R       0.675300
      2 O17        -12.2200    11.9590    68.5860 o          1 H6R      -0.622100
      3 C09        -11.2470    10.8450    70.4540 ce         1 H6R      -0.246200
      4 C10        -11.1650     9.6540    69.8540 cf         1 H6R      -0.021200
      5 C11        -10.6610     8.4090    70.4250 ca         1 H6R      -0.078800
      6 C12        -10.6200     7.2760    69.6100 ca         1 H6R      -0.103500
      7 C13        -10.1460     6.0650    70.0930 ca         1 H6R      -0.132500
      8 C14         -9.7070     5.9680    71.4050 ca         1 H6R      -0.111000
      9 C15         -9.7450     7.0880    72.2300 ca         1 H6R      -0.132500
     10 C16        -10.2170     8.2960    71.7470 ca         1 H6R      -0.103500
     11 C06        -13.7120    15.1180    72.9050 c1         1 H6R      -0.128500
     12 C04        -12.1210    15.5500    70.8200 c3         1 H6R      -0.001300
     13 C03        -12.1790    14.4040    69.8030 c3         1 H6R       0.045700
     14 N07        -11.7520    13.1760    70.4160 ns         1 H6R      -0.553900
     15 C02        -11.2660    14.7540    68.6220 c          1 H6R       0.657100
     16 O01        -10.0620    14.5890    68.6870 o          1 H6R      -0.595100
     17 C27        -12.2570    12.6130    64.1230 c          1 H6R       0.707500
     18 N26        -11.4810    11.5310    63.9440 ns         1 H6R      -0.581900
     19 C25        -10.4040    11.3980    64.9020 c5         1 H6R       0.101000
     20 C24        -10.2770    12.8220    65.4450 c5         1 H6R      -0.089400
     21 C23        -11.6900    13.3880    65.3040 c5         1 H6R      -0.160700
     22 C22        -11.7910    14.8940    65.1300 c3         1 H6R      -0.063400
     23 C19        -11.2420    15.6570    66.3310 c3         1 H6R      -0.019300
     24 N18        -11.9000    15.2940    67.5650 ns         1 H6R      -0.563900
     25 C20        -11.3080    17.1630    66.1750 c          1 H6R       0.561900
     26 O21        -11.5230    17.7370    65.1420 o          1 H6R      -0.497100
     27 H14        -10.9260    10.9940    71.4800 ha         1 H6R       0.130000
     28 H1         -11.4990     9.5850    68.8230 ha         1 H6R       0.144000
     29 H16        -10.9630     7.3490    68.5840 ha         1 H6R       0.131500
     30 H3         -10.1220     5.1990    69.4440 ha         1 H6R       0.134000
     31 H17         -9.3360     5.0260    71.7870 ha         1 H6R       0.133000
     32 H4          -9.4060     7.0170    73.2550 ha         1 H6R       0.134000
     33 H18        -10.2390     9.1540    72.4080 ha         1 H6R       0.131500
     34 H13        -14.3520    14.9400    73.7380 ha         1 H6R       0.171500
     35 H11        -11.0920    15.6880    71.1640 hc         1 H6R       0.074200
     36 H12        -12.4120    16.4770    70.3210 hc         1 H6R       0.074200
     37 H10        -13.2110    14.2970    69.4580 h1         1 H6R       0.078700
     38 H23        -11.2950    13.2100    71.3140 hn         1 H6R       0.330500
     39 H21        -10.6610    10.6870    65.6940 h1         1 H6R       0.045200
     40 H22         -9.4910    11.0470    64.4210 h1         1 H6R       0.045200
     41 H8          -9.9050    12.8390    66.4670 hc         1 H6R       0.061700
     42 H9          -9.5830    13.3940    64.8250 hc         1 H6R       0.061700
     43 H20        -12.2840    13.0810    66.1730 hc         1 H6R       0.094700
     44 H6         -11.2350    15.2000    64.2400 hc         1 H6R       0.069700
     45 H7         -12.8340    15.1760    64.9630 hc         1 H6R       0.069700
     46 H19        -10.1780    15.4280    66.4630 h1         1 H6R       0.100700
     47 H24        -12.9090    15.3390    67.5770 hn         1 H6R       0.321500
     48 H5         -11.1280    17.7120    67.1180 h4         1 H6R      -0.007800
     49 C05        -12.9940    15.3190    71.9630 c1         1 H6R      -0.164100
     50 H25        -11.7270    10.8000    63.2940 hn         1 H6R       0.325500
     51 O28        -13.2460    12.9070    63.4720 o          1 H6R      -0.634500
@<TRIPOS>BOND
     1     1     2 2   
     2     1     3 1   
     3     1    14 1   
     4     3     4 2   
     5     3    27 1   
     6     4     5 1   
     7     4    28 1   
     8     5     6 ar  
     9     5    10 ar  
    10     6     7 ar  
    11     6    29 1   
    12     7     8 ar  
    13     7    30 1   
    14     8     9 ar  
    15     8    31 1   
    16     9    10 ar  
    17     9    32 1   
    18    10    33 1   
    19    11    34 1   
    20    11    49 3   
    21    12    13 1   
    22    12    35 1   
    23    12    36 1   
    24    12    49 1   
    25    13    14 1   
    26    13    15 1   
    27    13    37 1   
    28    14    38 1   
    29    15    16 2   
    30    15    24 1   
    31    17    18 1   
    32    17    21 1   
    33    17    51 2   
    34    18    19 1   
    35    18    50 1   
    36    19    20 1   
    37    19    39 1   
    38    19    40 1   
    39    20    21 1   
    40    20    41 1   
    41    20    42 1   
    42    21    22 1   
    43    21    43 1   
    44    22    23 1   
    45    22    44 1   
    46    22    45 1   
    47    23    24 1   
    48    23    25 1   
    49    23    46 1   
    50    24    47 1   
    51    25    26 2   
    52    25    48 1   
@<TRIPOS>SUBSTRUCTURE
     1 H6R         1 TEMP              0 ****  ****    0 ROOT
