@<TRIPOS>MOLECULE
H6R
   51    52     1     0     0
SMALL
No Charge or Current Charge


@<TRIPOS>ATOM
      1 C08        -12.1400    11.3970    70.1350 c          1 H6R       0.608300
      2 O17        -13.3390    11.2520    69.9470 o          1 H6R      -0.622100
      3 C09        -11.2650    10.3150    70.6570 ce         1 H6R      -0.296200
      4 C10        -11.6980     9.0620    70.9850 cf         1 H6R      -0.071200
      5 C11        -10.9330     7.9110    71.5100 ca         1 H6R      -0.078800
      6 C12        -11.6040     6.7000    71.7790 ca         1 H6R      -0.085500
      7 C13        -10.9030     5.5880    72.2780 ca         1 H6R      -0.114500
      8 C14         -9.5220     5.6750    72.5140 ca         1 H6R      -0.093000
      9 C15         -8.8430     6.8760    72.2500 ca         1 H6R      -0.114500
     10 C16         -9.5430     7.9880    71.7510 ca         1 H6R      -0.085500
     11 C06        -14.1650    13.9300    72.3460 c1         1 H6R      -0.216000
     12 C04        -12.4120    14.8160    70.5210 c3         1 H6R      -0.001300
     13 C03        -12.1200    13.8170    69.3660 c3         1 H6R       0.045700
     14 N07        -11.4820    12.5740    69.8680 ns         1 H6R      -0.486900
     15 C02        -11.2170    14.4780    68.2860 c          1 H6R       0.590100
     16 O01        -10.0330    14.2010    68.1450 o          1 H6R      -0.595100
     17 C27        -12.0490    13.5750    63.3820 c          1 H6R       0.565000
     18 N26        -11.1640    12.6460    62.9090 ns         1 H6R      -0.514900
     19 C25        -10.0200    12.3940    63.7820 c5         1 H6R       0.101000
     20 C24         -9.9490    13.7400    64.5520 c5         1 H6R      -0.089400
     21 C23        -11.4570    14.0880    64.7010 c5         1 H6R      -0.160700
     22 C22        -11.7660    15.5840    64.9890 c3         1 H6R      -0.063400
     23 C19        -11.2230    16.1210    66.3420 c3         1 H6R      -0.019300
     24 N18        -11.8490    15.4120    67.4850 ns         1 H6R      -0.496900
     25 C20        -11.4170    17.6500    66.5120 c          1 H6R       0.561900
     26 O21        -12.2290    18.3190    65.8790 o          1 H6R      -0.497100
     27 H14        -10.2160    10.5710    70.7750 ha         1 H6R       0.180000
     28 H1         -12.7630     8.8570    70.8480 ha         1 H6R       0.194000
     29 H16        -12.6740     6.6150    71.6010 ha         1 H6R       0.113500
     30 H3         -11.4310     4.6590    72.4820 ha         1 H6R       0.116000
     31 H17         -8.9790     4.8150    72.9010 ha         1 H6R       0.115000
     32 H4          -7.7730     6.9450    72.4330 ha         1 H6R       0.116000
     33 H18         -8.9940     8.9050    71.5550 ha         1 H6R       0.113500
     34 H13        -14.8640    13.5740    73.0780 ha         1 H6R       0.259000
     35 H11        -11.4740    15.0680    71.0320 hc         1 H6R       0.074200
     36 H12        -12.8040    15.7530    70.1070 hc         1 H6R       0.074200
     37 H10        -13.0650    13.5610    68.8700 h1         1 H6R       0.078700
     38 H23        -10.4800    12.5790    70.0160 hn         1 H6R       0.330500
     39 H21        -10.2140    11.5520    64.4600 h1         1 H6R       0.045200
     40 H22         -9.0950    12.1880    63.2260 h1         1 H6R       0.045200
     41 H8          -9.4250    13.6480    65.5100 hc         1 H6R       0.061700
     42 H9          -9.4220    14.4970    63.9590 hc         1 H6R       0.061700
     43 H20        -11.8780    13.4630    65.4960 hc         1 H6R       0.094700
     44 H6         -11.3540    16.1980    64.1770 hc         1 H6R       0.069700
     45 H7         -12.8530    15.7420    64.9630 hc         1 H6R       0.069700
     46 H19        -10.1370    15.9630    66.3690 h1         1 H6R       0.100700
     47 H24        -12.8350    15.5730    67.6690 hn         1 H6R       0.321500
     48 H5         -10.7550    18.1260    67.2680 h4         1 H6R      -0.007800
     49 C05        -13.3770    14.3160    71.5130 c1         1 H6R      -0.164100
     50 H25        -11.3210    12.2370    61.9950 hn         1 H6R       0.325500
     51 O28        -12.9730    14.0170    62.7180 o          1 H6R      -0.559000
@<TRIPOS>BOND
     1     1     2 2   
     2     1     3 1   
     3     1    14 1   
     4     3     4 2   
     5     3    27 1   
     6     4     5 1   
     7     4    28 1   
     8     5     6 ar  
     9     5    10 ar  
    10     6     7 ar  
    11     6    29 1   
    12     7     8 ar  
    13     7    30 1   
    14     8     9 ar  
    15     8    31 1   
    16     9    10 ar  
    17     9    32 1   
    18    10    33 1   
    19    11    34 1   
    20    11    49 3   
    21    12    13 1   
    22    12    35 1   
    23    12    36 1   
    24    12    49 1   
    25    13    14 1   
    26    13    15 1   
    27    13    37 1   
    28    14    38 1   
    29    15    16 2   
    30    15    24 1   
    31    17    18 1   
    32    17    21 1   
    33    17    51 2   
    34    18    19 1   
    35    18    50 1   
    36    19    20 1   
    37    19    39 1   
    38    19    40 1   
    39    20    21 1   
    40    20    41 1   
    41    20    42 1   
    42    21    22 1   
    43    21    43 1   
    44    22    23 1   
    45    22    44 1   
    46    22    45 1   
    47    23    24 1   
    48    23    25 1   
    49    23    46 1   
    50    24    47 1   
    51    25    26 2   
    52    25    48 1   
@<TRIPOS>SUBSTRUCTURE
     1 H6R         1 TEMP              0 ****  ****    0 ROOT
