@<TRIPOS>MOLECULE
H6S
   51    54     1     0     0
SMALL
No Charge or Current Charge


@<TRIPOS>ATOM
      1 C02         -0.6940    -3.1020    -0.2610 ca         1 H6S       0.135000
      2 C03         -0.9900    -4.1170     0.6670 ca         1 H6S      -0.116000
      3 C04         -1.2390    -3.7990     2.0110 ca         1 H6S      -0.109000
      4 C05         -1.1880    -2.4620     2.4320 ca         1 H6S      -0.111000
      5 C06         -0.8920    -1.4440     1.5100 ca         1 H6S      -0.072000
      6 C07         -0.6500    -1.7490     0.1510 ca         1 H6S      -0.096300
      7 C08         -0.3270    -0.6240    -0.8400 c3         1 H6S       0.290800
      8 C11         -3.2110     1.7190    -0.3960 c3         1 H6S      -0.067400
      9 C12         -4.7480     1.7450    -0.6030 c5         1 H6S       0.174500
     10 C15         -6.9640     1.5080     0.0710 c5         1 H6S       0.161800
     11 C16         -6.8560     2.9580    -0.4810 c5         1 H6S      -0.111400
     12 C17         -5.3230     3.1860    -0.6410 c5         1 H6S      -0.093400
     13 C18          1.1250    -0.2240    -0.7820 cc         1 H6S      -0.131600
     14 C20          2.1580    -0.6640    -1.5900 cd         1 H6S      -0.281800
     15 C21          3.4460    -0.1180    -1.2750 ca         1 H6S       0.333800
     16 C22          3.3880     0.7430    -0.1990 ca         1 H6S      -0.195000
     17 C23          4.5630     1.3920     0.2530 ca         1 H6S      -0.078600
     18 C24          4.5990     2.3590     1.4260 c          1 H6S       0.715600
     19 C27          5.7410     1.0910    -0.4750 ca         1 H6S      -0.145000
     20 C28          5.6930     0.1920    -1.5620 ca         1 H6S       0.304900
     21 N13         -5.5790     1.2120     0.5060 n3         1 H6S      -0.721600
     22 N29          4.5560    -0.4170    -1.9710 nb         1 H6S      -0.677000
     23 O09         -1.1210     0.5420    -0.5470 os         1 H6S      -0.442000
     24 O25          5.4280     3.2590     1.4020 o          1 H6S      -0.704000
     25 O26          3.8410     2.1790     2.3690 o          1 H6S      -0.704000
     26 S19          1.7270     0.9190     0.4560 ss         1 H6S       0.232400
     27 Cl          -0.3770    -3.5760    -1.9310 cl         1 H6S      -0.220000
     28 H1          -1.0230    -5.1530     0.3410 ha         1 H6S       0.118000
     29 H2          -1.4670    -4.5880     2.7250 ha         1 H6S       0.107000
     30 H3          -1.3770    -2.2120     3.4740 ha         1 H6S       0.114000
     31 H4          -0.8550    -0.4120     1.8540 ha         1 H6S       0.140000
     32 H5          -0.5430    -0.9490    -1.8660 h1         1 H6S       0.049700
     33 H8          -2.9740     1.9340     0.6530 hc         1 H6S       0.060200
     34 H9          -2.7580     2.5250    -0.9850 hc         1 H6S       0.060200
     35 H10         -4.9730     1.2290    -1.5480 h1         1 H6S       0.033700
     36 H11         -5.4340    -0.8680     0.0510 h1         1 H6S       0.026700
     37 H12         -4.3650    -0.3120     1.3690 h1         1 H6S       0.026700
     38 H13         -6.1010    -0.4980     1.6590 h1         1 H6S       0.026700
     39 H14         -7.6860     1.4340     0.8960 h1         1 H6S       0.047700
     40 H15         -7.2860     0.8160    -0.7210 h1         1 H6S       0.047700
     41 H16         -7.3870     3.0530    -1.4350 hc         1 H6S       0.043200
     42 H17         -7.2960     3.6880     0.2080 hc         1 H6S       0.043200
     43 H18         -4.9300     3.7900     0.1850 hc         1 H6S       0.051200
     44 H19         -5.0740     3.7080    -1.5720 hc         1 H6S       0.051200
     45 H20          2.0130    -1.3710    -2.3990 ha         1 H6S       0.192000
     46 H21          6.6900     1.5420    -0.2010 ha         1 H6S       0.132000
     47 H22          6.5960    -0.0450    -2.1230 h4         1 H6S      -0.008900
     48 C10         -2.5270     0.4040    -0.8150 c3         1 H6S       0.160600
     49 C14         -5.3560    -0.1910     0.9130 c3         1 H6S       0.158100
     50 H6          -2.9470    -0.4390    -0.2560 h1         1 H6S       0.024200
     51 H7          -2.7000     0.2260    -1.8840 h1         1 H6S       0.024200
@<TRIPOS>BOND
     1     1     2 ar  
     2     1     6 ar  
     3     1    27 1   
     4     2     3 ar  
     5     2    28 1   
     6     3     4 ar  
     7     3    29 1   
     8     4     5 ar  
     9     4    30 1   
    10     5     6 ar  
    11     5    31 1   
    12     6     7 1   
    13     7    13 1   
    14     7    23 1   
    15     7    32 1   
    16     8     9 1   
    17     8    33 1   
    18     8    34 1   
    19     8    48 1   
    20     9    12 1   
    21     9    21 1   
    22     9    35 1   
    23    10    11 1   
    24    10    21 1   
    25    10    39 1   
    26    10    40 1   
    27    11    12 1   
    28    11    41 1   
    29    11    42 1   
    30    12    43 1   
    31    12    44 1   
    32    13    14 2   
    33    13    26 1   
    34    14    15 1   
    35    14    45 1   
    36    15    16 ar  
    37    15    22 ar  
    38    16    17 ar  
    39    16    26 1   
    40    17    18 1   
    41    17    19 ar  
    42    18    24 1   
    43    18    25 1   
    44    19    20 ar  
    45    19    46 1   
    46    20    22 ar  
    47    20    47 1   
    48    21    49 1   
    49    23    48 1   
    50    36    49 1   
    51    37    49 1   
    52    38    49 1   
    53    48    50 1   
    54    48    51 1   
@<TRIPOS>SUBSTRUCTURE
     1 H6S         1 TEMP              0 ****  ****    0 ROOT
