@<TRIPOS>MOLECULE
H6S
   51    54     1     0     0
SMALL
abcg2


@<TRIPOS>ATOM
      1 C02         -0.5030    -3.0350     0.0140 ca         1 H6S       0.135000
      2 C03         -0.7020    -4.0050     0.9870 ca         1 H6S      -0.116000
      3 C04         -1.0100    -3.6190     2.2810 ca         1 H6S      -0.109000
      4 C05         -1.1170    -2.2700     2.5910 ca         1 H6S      -0.111000
      5 C06         -0.9170    -1.3170     1.6070 ca         1 H6S      -0.072000
      6 C07         -0.6080    -1.6780     0.2970 ca         1 H6S      -0.096300
      7 C08         -0.3650    -0.6010    -0.7500 c3         1 H6S       0.290800
      8 C11         -3.1590     1.7670    -0.5360 c3         1 H6S      -0.067400
      9 C12         -4.6590     1.7130    -0.8020 c5         1 H6S       0.174500
     10 C15         -6.3820     1.6240     0.8260 c5         1 H6S       0.161800
     11 C16         -6.7070     2.7730    -0.1210 c5         1 H6S      -0.111400
     12 C17         -5.3240     3.0930    -0.6720 c5         1 H6S      -0.093400
     13 C18          1.0850    -0.2240    -0.7570 cc         1 H6S      -0.131600
     14 C20          2.0360    -0.6490    -1.6190 cd         1 H6S      -0.281800
     15 C21          3.3290    -0.1190    -1.2940 ca         1 H6S       0.333800
     16 C22          3.2900     0.7130    -0.1600 ca         1 H6S      -0.195000
     17 C23          4.4500     1.3260     0.3000 ca         1 H6S      -0.078600
     18 C24          4.4290     2.2280     1.5220 c          1 H6S       0.715600
     19 C27          5.6040     1.0560    -0.4170 ca         1 H6S      -0.145000
     20 C28          5.5550     0.2160    -1.5320 ca         1 H6S       0.304900
     21 N13         -5.3610     0.8270     0.1430 n3         1 H6S      -0.721600
     22 N29          4.4520    -0.3650    -1.9730 nb         1 H6S      -0.677000
     23 O09         -1.1010     0.5610    -0.4940 os         1 H6S      -0.442000
     24 O25          5.5050     2.7370     1.8700 o          1 H6S      -0.704000
     25 O26          3.3080     2.3600     2.0530 o          1 H6S      -0.704000
     26 S19          1.6910     0.8420     0.4850 ss         1 H6S       0.232400
     27 CL          -0.1070    -3.5730    -1.5920 cl         1 H6S      -0.220000
     28 H1          -0.6160    -5.0530     0.7330 ha         1 H6S       0.118000
     29 H2          -1.1650    -4.3730     3.0410 ha         1 H6S       0.107000
     30 H3          -1.3590    -1.9600     3.5990 ha         1 H6S       0.114000
     31 H4          -1.0130    -0.2680     1.8570 ha         1 H6S       0.140000
     32 H5          -0.6170    -1.0020    -1.7410 h1         1 H6S       0.049700
     33 H8          -2.9960     2.0960     0.4950 hc         1 H6S       0.060200
     34 H9          -2.7060     2.5180    -1.1910 hc         1 H6S       0.060200
     35 H10         -4.8170     1.3470    -1.8260 h1         1 H6S       0.033700
     36 H11         -6.6450    -0.1730    -1.2580 h1         1 H6S       0.026700
     37 H12         -5.0880    -0.9440    -0.9390 h1         1 H6S       0.026700
     38 H13         -6.3500    -1.0090     0.2750 h1         1 H6S       0.026700
     39 H14         -5.9850     2.0220     1.7660 h1         1 H6S       0.047700
     40 H15         -7.2480     1.0110     1.0830 h1         1 H6S       0.047700
     41 H16         -7.3710     2.4340    -0.9200 hc         1 H6S       0.043200
     42 H17         -7.1850     3.6190     0.3730 hc         1 H6S       0.043200
     43 H18         -4.7720     3.7160     0.0390 hc         1 H6S       0.051200
     44 H19         -5.3420     3.6270    -1.6230 hc         1 H6S       0.051200
     45 H20          1.8540    -1.3080    -2.4550 ha         1 H6S       0.192000
     46 H21          6.5450     1.4950    -0.1160 ha         1 H6S       0.132000
     47 H22          6.4630     0.0130    -2.0880 h4         1 H6S      -0.008900
     48 C10         -2.4870     0.4300    -0.7580 c3         1 H6S       0.160600
     49 C14         -5.8920    -0.3670    -0.4790 c3         1 H6S       0.158100
     50 H6          -2.9390    -0.3270    -0.1060 h1         1 H6S       0.024200
     51 H7          -2.6360     0.0950    -1.7950 h1         1 H6S       0.024200
@<TRIPOS>BOND
     1     1     2 ar  
     2     1     6 ar  
     3     1    27 1   
     4     2     3 ar  
     5     2    28 1   
     6     3     4 ar  
     7     3    29 1   
     8     4     5 ar  
     9     4    30 1   
    10     5     6 ar  
    11     5    31 1   
    12     6     7 1   
    13     7    13 1   
    14     7    23 1   
    15     7    32 1   
    16     8     9 1   
    17     8    33 1   
    18     8    34 1   
    19     8    48 1   
    20     9    12 1   
    21     9    21 1   
    22     9    35 1   
    23    10    11 1   
    24    10    21 1   
    25    10    39 1   
    26    10    40 1   
    27    11    12 1   
    28    11    41 1   
    29    11    42 1   
    30    12    43 1   
    31    12    44 1   
    32    13    14 2   
    33    13    26 1   
    34    14    15 1   
    35    14    45 1   
    36    15    16 ar  
    37    15    22 ar  
    38    16    17 ar  
    39    16    26 1   
    40    17    18 1   
    41    17    19 ar  
    42    18    24 1   
    43    18    25 1   
    44    19    20 ar  
    45    19    46 1   
    46    20    22 ar  
    47    20    47 1   
    48    21    49 1   
    49    23    48 1   
    50    36    49 1   
    51    37    49 1   
    52    38    49 1   
    53    48    50 1   
    54    48    51 1   
@<TRIPOS>SUBSTRUCTURE
     1 H6S         1 TEMP              0 ****  ****    0 ROOT
