@<TRIPOS>MOLECULE
H6T
   51    54     1     0     0
SMALL
No Charge or Current Charge


@<TRIPOS>ATOM
      1 C02          0.5780     3.2470    -0.0280 ca         1 H6T       0.135000
      2 C03          0.7240     4.2850    -0.9650 ca         1 H6T      -0.115000
      3 C04          0.8190     3.9960    -2.3360 ca         1 H6T      -0.109000
      4 C05          0.7650     2.6640    -2.7730 ca         1 H6T      -0.114000
      5 C06          0.6190     1.6230    -1.8410 ca         1 H6T      -0.077000
      6 C07          0.5310     1.8990    -0.4570 ca         1 H6T      -0.095300
      7 C08          0.3640     0.7470     0.5410 c3         1 H6T       0.290800
      8 C11          3.3060    -1.4550    -0.1720 c3         1 H6T      -0.067400
      9 C12          4.8560    -1.3790    -0.2010 c5         1 H6T       0.173500
     10 C15          6.9940    -1.6690     0.6700 c5         1 H6T       0.160800
     11 C16          6.9930    -2.4460    -0.6760 c5         1 H6T      -0.111400
     12 C17          5.4910    -2.4830    -1.0870 c5         1 H6T      -0.093400
     13 C18         -1.0650     0.2740     0.6170 cc         1 H6T      -0.131600
     14 C20         -2.0480     0.6900     1.4950 cd         1 H6T      -0.279800
     15 C21         -3.3300     0.0750     1.3040 ca         1 H6T       0.333800
     16 C22         -3.3140    -0.8250     0.2590 ca         1 H6T      -0.195000
     17 C23         -4.4960    -1.5210    -0.0920 ca         1 H6T      -0.078600
     18 C24         -4.5810    -2.5280    -1.2300 c          1 H6T       0.715600
     19 C27         -5.6370    -1.2150     0.6900 ca         1 H6T      -0.145000
     20 C28         -5.5460    -0.2780     1.7410 ca         1 H6T       0.304900
     21 N13          5.5670    -1.6830     1.0670 n3         1 H6T      -0.720600
     22 N29         -4.4020     0.3730     2.0570 nb         1 H6T      -0.677000
     23 O09          1.1860    -0.3710     0.1520 os         1 H6T      -0.442000
     24 O25         -3.6050    -3.2190    -1.4860 o          1 H6T      -0.704000
     25 O26         -5.6490    -2.6410    -1.8160 o          1 H6T      -0.704000
     26 S19         -1.7100    -0.9330    -0.5360 ss         1 H6T       0.231400
     27 Cl           0.4470     3.6840     1.6770 cl         1 H6T      -0.217000
     28 H1           0.7600     5.3170    -0.6260 ha         1 H6T       0.119000
     29 H2           0.9320     4.8030    -3.0570 ha         1 H6T       0.107000
     30 H3           0.8350     2.4370    -3.8340 ha         1 H6T       0.113000
     31 H4           0.5760     0.5960    -2.1970 ha         1 H6T       0.138000
     32 H5           0.6610     1.0700     1.5470 h1         1 H6T       0.052700
     33 H8           2.9840    -2.2920     0.4580 hc         1 H6T       0.059200
     34 H9           2.9460    -1.6750    -1.1840 hc         1 H6T       0.059200
     35 H10          5.1400    -0.3860    -0.5830 h1         1 H6T       0.033700
     36 H11          5.3700     0.2230     2.0050 h1         1 H6T       0.026700
     37 H12          4.2290    -1.0210     2.5860 h1         1 H6T       0.026700
     38 H13          5.9290    -1.0850     3.0750 h1         1 H6T       0.026700
     39 H14          7.6410    -2.1460     1.4210 h1         1 H6T       0.047700
     40 H15          7.3530    -0.6400     0.5220 h1         1 H6T       0.047700
     41 H16          7.6110    -1.9350    -1.4230 hc         1 H6T       0.043700
     42 H17          7.3970    -3.4590    -0.5610 hc         1 H6T       0.043700
     43 H18          5.0510    -3.4640    -0.8720 hc         1 H6T       0.051200
     44 H19          5.3460    -2.2910    -2.1560 hc         1 H6T       0.051200
     45 H20         -1.8730     1.4310     2.2670 ha         1 H6T       0.192000
     46 H21         -6.5890    -1.7000     0.4940 ha         1 H6T       0.132000
     47 H22         -6.4190    -0.0400     2.3470 h4         1 H6T      -0.008900
     48 C10          2.6020    -0.1660     0.2930 c3         1 H6T       0.160600
     49 C14          5.2550    -0.8430     2.2420 c3         1 H6T       0.157100
     50 H6           2.8530     0.0580     1.3360 h1         1 H6T       0.025200
     51 H7           2.9390     0.6730    -0.3300 h1         1 H6T       0.025200
@<TRIPOS>BOND
     1     1     2 ar  
     2     1     6 ar  
     3     1    27 1   
     4     2     3 ar  
     5     2    28 1   
     6     3     4 ar  
     7     3    29 1   
     8     4     5 ar  
     9     4    30 1   
    10     5     6 ar  
    11     5    31 1   
    12     6     7 1   
    13     7    13 1   
    14     7    23 1   
    15     7    32 1   
    16     8     9 1   
    17     8    33 1   
    18     8    34 1   
    19     8    48 1   
    20     9    12 1   
    21     9    21 1   
    22     9    35 1   
    23    10    11 1   
    24    10    21 1   
    25    10    39 1   
    26    10    40 1   
    27    11    12 1   
    28    11    41 1   
    29    11    42 1   
    30    12    43 1   
    31    12    44 1   
    32    13    14 2   
    33    13    26 1   
    34    14    15 1   
    35    14    45 1   
    36    15    16 ar  
    37    15    22 ar  
    38    16    17 ar  
    39    16    26 1   
    40    17    18 1   
    41    17    19 ar  
    42    18    24 1   
    43    18    25 1   
    44    19    20 ar  
    45    19    46 1   
    46    20    22 ar  
    47    20    47 1   
    48    21    49 1   
    49    23    48 1   
    50    36    49 1   
    51    37    49 1   
    52    38    49 1   
    53    48    50 1   
    54    48    51 1   
@<TRIPOS>SUBSTRUCTURE
     1 H6T         1 TEMP              0 ****  ****    0 ROOT
