@<TRIPOS>MOLECULE
H6T
   51    54     1     0     0
SMALL
abcg2


@<TRIPOS>ATOM
      1 C02          0.3200     3.1590    -0.0020 ca         1 H6T       0.135000
      2 C03          0.3470     4.2130    -0.9040 ca         1 H6T      -0.115000
      3 C04          0.5390     3.9520    -2.2510 ca         1 H6T      -0.109000
      4 C05          0.7040     2.6430    -2.6840 ca         1 H6T      -0.114000
      5 C06          0.6750     1.6040    -1.7680 ca         1 H6T      -0.077000
      6 C07          0.4850     1.8390    -0.4080 ca         1 H6T      -0.095300
      7 C08          0.4240     0.6650     0.5610 c3         1 H6T       0.290800
      8 C11          3.2920    -1.4120    -0.3920 c3         1 H6T      -0.067400
      9 C12          4.8070    -1.2760    -0.3200 c5         1 H6T       0.173500
     10 C15          6.2600    -2.3840     1.1910 c5         1 H6T       0.160800
     11 C16          6.7950    -2.6260    -0.2150 c5         1 H6T      -0.111400
     12 C17          5.5330    -2.4230    -1.0430 c5         1 H6T      -0.093400
     13 C18         -0.9960     0.2070     0.6950 cc         1 H6T      -0.131600
     14 C20         -1.8710     0.5270     1.6740 cd         1 H6T      -0.279800
     15 C21         -3.1680    -0.0400     1.4410 ca         1 H6T       0.333800
     16 C22         -3.2090    -0.7940     0.2520 ca         1 H6T      -0.195000
     17 C23         -4.3880    -1.4200    -0.1380 ca         1 H6T      -0.078600
     18 C24         -4.4560    -2.2350    -1.4190 c          1 H6T       0.715600
     19 C27         -5.4740    -1.2480     0.7030 ca         1 H6T      -0.145000
     20 C28         -5.3460    -0.4860     1.8660 ca         1 H6T       0.304900
     21 N13          5.3060    -1.2820     1.0670 n3         1 H6T      -0.720600
     22 N29         -4.2260     0.1100     2.2400 nb         1 H6T      -0.677000
     23 O09          1.1800    -0.4220     0.1090 os         1 H6T      -0.442000
     24 O25         -3.3780    -2.3280    -2.0370 o          1 H6T      -0.704000
     25 O26         -5.5560    -2.7220    -1.7210 o          1 H6T      -0.704000
     26 S19         -1.6790    -0.8060    -0.5510 ss         1 H6T       0.231400
     27 CL           0.0670     3.5400     1.6750 cl         1 H6T      -0.217000
     28 H1           0.2180     5.2290    -0.5550 ha         1 H6T       0.119000
     29 H2           0.5610     4.7710    -2.9570 ha         1 H6T       0.107000
     30 H3           0.8540     2.4300    -3.7330 ha         1 H6T       0.113000
     31 H4           0.8150     0.5880    -2.1140 ha         1 H6T       0.138000
     32 H5           0.7730     0.9930     1.5490 h1         1 H6T       0.052700
     33 H8           2.9930    -2.3460     0.0920 hc         1 H6T       0.059200
     34 H9           2.9920    -1.4820    -1.4430 hc         1 H6T       0.059200
     35 H10          5.0950    -0.3290    -0.7980 h1         1 H6T       0.033700
     36 H11          6.7230     0.3220     0.8910 h1         1 H6T       0.026700
     37 H12          5.0900     0.7740     1.3890 h1         1 H6T       0.026700
     38 H13          6.1480    -0.0420     2.5260 h1         1 H6T       0.026700
     39 H14          5.7500    -3.2850     1.5500 h1         1 H6T       0.047700
     40 H15          7.0360    -2.1470     1.9210 h1         1 H6T       0.047700
     41 H16          7.5510    -1.8790    -0.4710 hc         1 H6T       0.043700
     42 H17          7.2430    -3.6130    -0.3420 hc         1 H6T       0.043700
     43 H18          4.9220    -3.3310    -1.0240 hc         1 H6T       0.051200
     44 H19          5.7270    -2.1830    -2.0890 hc         1 H6T       0.051200
     45 H20         -1.6330     1.1380     2.5330 ha         1 H6T       0.192000
     46 H21         -6.4240    -1.7030     0.4590 ha         1 H6T       0.132000
     47 H22         -6.2020    -0.3580     2.5190 h4         1 H6T      -0.008900
     48 C10          2.5790    -0.2420     0.2510 c3         1 H6T       0.160600
     49 C14          5.8500    -0.0040     1.4770 c3         1 H6T       0.157100
     50 H6           2.8350    -0.1740     1.3150 h1         1 H6T       0.025200
     51 H7           2.9000     0.6940    -0.2240 h1         1 H6T       0.025200
@<TRIPOS>BOND
     1     1     2 ar  
     2     1     6 ar  
     3     1    27 1   
     4     2     3 ar  
     5     2    28 1   
     6     3     4 ar  
     7     3    29 1   
     8     4     5 ar  
     9     4    30 1   
    10     5     6 ar  
    11     5    31 1   
    12     6     7 1   
    13     7    13 1   
    14     7    23 1   
    15     7    32 1   
    16     8     9 1   
    17     8    33 1   
    18     8    34 1   
    19     8    48 1   
    20     9    12 1   
    21     9    21 1   
    22     9    35 1   
    23    10    11 1   
    24    10    21 1   
    25    10    39 1   
    26    10    40 1   
    27    11    12 1   
    28    11    41 1   
    29    11    42 1   
    30    12    43 1   
    31    12    44 1   
    32    13    14 2   
    33    13    26 1   
    34    14    15 1   
    35    14    45 1   
    36    15    16 ar  
    37    15    22 ar  
    38    16    17 ar  
    39    16    26 1   
    40    17    18 1   
    41    17    19 ar  
    42    18    24 1   
    43    18    25 1   
    44    19    20 ar  
    45    19    46 1   
    46    20    22 ar  
    47    20    47 1   
    48    21    49 1   
    49    23    48 1   
    50    36    49 1   
    51    37    49 1   
    52    38    49 1   
    53    48    50 1   
    54    48    51 1   
@<TRIPOS>SUBSTRUCTURE
     1 H6T         1 TEMP              0 ****  ****    0 ROOT
