@<TRIPOS>MOLECULE
H6U
   52    54     1     0     0
SMALL
No Charge or Current Charge


@<TRIPOS>ATOM
      1 C02         98.5880    93.1160   -49.3420 cc         1 H6U       0.710300
      2 C04         99.1720    91.0800   -49.8730 cd         1 H6U       0.324300
      3 C05         99.9600    90.0740   -50.6430 c3         1 H6U      -0.194700
      4 C06         99.3040    89.7940   -51.9860 c          1 H6U       0.613100
      5 C09         99.5840    90.4900   -54.4470 ca         1 H6U      -0.010000
      6 C10        100.3000    91.3960   -55.2520 ca         1 H6U      -0.152000
      7 C11        100.0720    91.4630   -56.6370 ca         1 H6U      -0.079500
      8 C12         99.1230    90.6190   -57.2410 ca         1 H6U      -0.115300
      9 C13         98.8700    90.6940   -58.7420 c3         1 H6U      -0.028100
     10 C14         97.7790    91.7240   -59.0950 c3         1 H6U       0.165800
     11 C16         96.5400    92.7610   -61.0060 c3         1 H6U       0.116800
     12 C17         96.5890    92.9240   -62.5500 c3         1 H6U       0.222600
     13 C19         95.9800    94.2350   -63.0510 ca         1 H6U      -0.088300
     14 C20         94.8370    94.2120   -63.8770 ca         1 H6U      -0.093000
     15 C21         94.2650    95.4110   -64.3360 ca         1 H6U      -0.114500
     16 C22         94.8320    96.6450   -63.9750 ca         1 H6U      -0.107000
     17 C23         95.9710    96.6780   -63.1540 ca         1 H6U      -0.114500
     18 C24         96.5430    95.4790   -62.6940 ca         1 H6U      -0.093000
     19 C25         98.4060    89.7090   -56.4430 ca         1 H6U      -0.079500
     20 C26         98.6340    89.6420   -55.0570 ca         1 H6U      -0.152000
     21 C27         98.2390    90.7950   -48.9000 cc         1 H6U      -0.262000
     22 N01         98.6300    94.4430   -49.4550 nv         1 H6U      -1.044900
     23 N03         99.3680    92.4270   -50.1270 nd         1 H6U      -0.770000
     24 N08         99.8710    90.4770   -53.0540 ns         1 H6U      -0.147000
     25 N15         97.5650    91.7740   -60.5550 n7         1 H6U      -0.892400
     26 O07         98.3460    89.0350   -52.0770 o          1 H6U      -0.590100
     27 O18         97.9640    92.8180   -62.9100 oh         1 H6U      -0.660000
     28 S28         97.5460    92.2540   -48.2480 ss         1 H6U      -0.086400
     29 H1         100.0070    89.1400   -50.0720 hc         1 H6U       0.085700
     30 H2         100.9730    90.4650   -50.7940 hc         1 H6U       0.085700
     31 H3         101.0380    92.0570   -54.8040 ha         1 H6U       0.128500
     32 H4         100.6330    92.1730   -57.2410 ha         1 H6U       0.110000
     33 H5          98.5730    89.7090   -59.1230 hc         1 H6U       0.051700
     34 H6          99.7960    90.9600   -59.2670 hc         1 H6U       0.051700
     35 H7          98.0890    92.7100   -58.7210 h1         1 H6U       0.036700
     36 H8          96.8490    91.4490   -58.5800 h1         1 H6U       0.036700
     37 H9          96.7370    93.7390   -60.5450 h1         1 H6U       0.045700
     38 H10         95.5290    92.4550   -60.7010 h1         1 H6U       0.045700
     39 H11         96.0390    92.0810   -62.9910 h1         1 H6U       0.033700
     40 H12         94.3880    93.2630   -64.1630 ha         1 H6U       0.116000
     41 H13         93.3830    95.3840   -64.9730 ha         1 H6U       0.111000
     42 H14         94.3890    97.5730   -64.3310 ha         1 H6U       0.111000
     43 H15         96.4120    97.6330   -62.8750 ha         1 H6U       0.111000
     44 H16         97.4280    95.5170   -62.0620 ha         1 H6U       0.116000
     45 H17         97.6680    89.0500   -56.8970 ha         1 H6U       0.110000
     46 H18         98.0640    88.9210   -54.4800 ha         1 H6U       0.128500
     47 H19         97.9190    89.8290   -48.5330 h4         1 H6U       0.167000
     48 H20         99.0740    94.7700   -50.3030 hn         1 H6U       0.485500
     49 H21         97.8100    94.9540   -49.1500 hn         1 H6U       0.485500
     50 H22        100.6330    91.0870   -52.7890 hn         1 H6U       0.185000
     51 H23         97.2630    90.8360   -60.8570 hn         1 H6U       0.412000
     52 H25         98.3220    92.3890   -62.0890 ho         1 H6U       0.470000
@<TRIPOS>BOND
     1     1    22 1   
     2     1    23 2   
     3     1    28 1   
     4     2     3 1   
     5     2    21 2   
     6     2    23 1   
     7     3     4 1   
     8     3    29 1   
     9     3    30 1   
    10     4    24 1   
    11     4    26 2   
    12     5     6 ar  
    13     5    20 ar  
    14     5    24 1   
    15     6     7 ar  
    16     6    31 1   
    17     7     8 ar  
    18     7    32 1   
    19     8     9 1   
    20     8    19 ar  
    21     9    10 1   
    22     9    33 1   
    23     9    34 1   
    24    10    25 1   
    25    10    35 1   
    26    10    36 1   
    27    11    12 1   
    28    11    25 1   
    29    11    37 1   
    30    11    38 1   
    31    12    13 1   
    32    12    27 1   
    33    12    39 1   
    34    13    14 ar  
    35    13    18 ar  
    36    14    15 ar  
    37    14    40 1   
    38    15    16 ar  
    39    15    41 1   
    40    16    17 ar  
    41    16    42 1   
    42    17    18 ar  
    43    17    43 1   
    44    18    44 1   
    45    19    20 ar  
    46    19    45 1   
    47    20    46 1   
    48    21    28 1   
    49    21    47 1   
    50    22    48 1   
    51    22    49 1   
    52    24    50 1   
    53    25    51 1   
    54    27    52 1   
@<TRIPOS>SUBSTRUCTURE
     1 H6U         1 TEMP              0 ****  ****    0 ROOT
