@<TRIPOS>MOLECULE
H6U
   52    54     1     0     0
SMALL
abcg2


@<TRIPOS>ATOM
      1 C02         99.4410    93.1570   -50.1980 cc         1 H6U       0.710300
      2 C04         98.8190    91.0370   -50.1800 cd         1 H6U       0.324300
      3 C05         98.9340    89.6180   -50.6390 c3         1 H6U      -0.194700
      4 C06         98.6490    89.3780   -52.1190 c          1 H6U       0.613100
      5 C09         99.1580    90.3780   -54.3400 ca         1 H6U      -0.010000
      6 C10         99.8400    91.4480   -54.9250 ca         1 H6U      -0.152000
      7 C11         99.8530    91.6140   -56.2980 ca         1 H6U      -0.079500
      8 C12         99.1920    90.7240   -57.1410 ca         1 H6U      -0.115300
      9 C13         99.1580    90.9400   -58.6260 c3         1 H6U      -0.028100
     10 C14         97.9480    91.7750   -59.0390 c3         1 H6U       0.165800
     11 C16         96.8520    92.8390   -60.9410 c3         1 H6U       0.116800
     12 C17         97.1780    93.3160   -62.3600 c3         1 H6U       0.222600
     13 C19         96.1610    94.3200   -62.8290 ca         1 H6U      -0.088300
     14 C20         95.0580    93.9000   -63.5670 ca         1 H6U      -0.093000
     15 C21         94.0800    94.8030   -63.9610 ca         1 H6U      -0.114500
     16 C22         94.1970    96.1450   -63.6240 ca         1 H6U      -0.107000
     17 C23         95.2960    96.5740   -62.8910 ca         1 H6U      -0.114500
     18 C24         96.2710    95.6680   -62.4950 ca         1 H6U      -0.093000
     19 C25         98.5220    89.6600   -56.5480 ca         1 H6U      -0.079500
     20 C26         98.4950    89.4750   -55.1720 ca         1 H6U      -0.152000
     21 C27         97.9210    91.4910   -49.2780 cc         1 H6U      -0.262000
     22 N01        100.1540    94.2630   -50.4870 nv         1 H6U      -1.044900
     23 N03         99.6770    91.9780   -50.6940 nd         1 H6U      -0.770000
     24 N08         99.1960    90.3000   -52.9450 ns         1 H6U      -0.147000
     25 N15         97.9400    92.0020   -60.4720 n7         1 H6U      -0.892400
     26 O07         98.0160    88.4040   -52.4850 o          1 H6U      -0.590100
     27 O18         98.4680    93.8720   -62.3790 oh         1 H6U      -0.660000
     28 S28         98.1430    93.1910   -49.0370 ss         1 H6U      -0.086400
     29 H1          98.2550    88.9870   -50.0690 hc         1 H6U       0.085700
     30 H2          99.9490    89.2560   -50.4420 hc         1 H6U       0.085700
     31 H3         100.3660    92.1570   -54.2970 ha         1 H6U       0.128500
     32 H4         100.3930    92.4540   -56.7200 ha         1 H6U       0.110000
     33 H5          99.1240    89.9770   -59.1440 hc         1 H6U       0.051700
     34 H6         100.0670    91.4480   -58.9570 hc         1 H6U       0.051700
     35 H7          97.9950    92.7460   -58.5380 h1         1 H6U       0.036700
     36 H8          97.0310    91.2840   -58.6830 h1         1 H6U       0.036700
     37 H9          96.7810    93.7100   -60.2820 h1         1 H6U       0.045700
     38 H10         95.8720    92.3450   -60.9280 h1         1 H6U       0.045700
     39 H11         97.1280    92.4380   -63.0260 h1         1 H6U       0.033700
     40 H12         94.9670    92.8550   -63.8430 ha         1 H6U       0.116000
     41 H13         93.2300    94.4600   -64.5370 ha         1 H6U       0.111000
     42 H14         93.4380    96.8530   -63.9330 ha         1 H6U       0.111000
     43 H15         95.3950    97.6190   -62.6260 ha         1 H6U       0.111000
     44 H16         97.1230    96.0160   -61.9250 ha         1 H6U       0.116000
     45 H17         98.0010    88.9450   -57.1750 ha         1 H6U       0.110000
     46 H18         97.9600    88.6340   -54.7640 ha         1 H6U       0.128500
     47 H19         97.1560    90.9420   -48.7540 h4         1 H6U       0.167000
     48 H20        100.7380    94.2200   -51.3070 hn         1 H6U       0.485500
     49 H21         99.7590    95.1680   -50.2960 hn         1 H6U       0.485500
     50 H22         99.6830    91.0620   -52.4790 hn         1 H6U       0.185000
     51 H23         97.9040    91.1080   -60.9510 hn         1 H6U       0.412000
     52 H25         98.9630    93.3580   -61.7210 ho         1 H6U       0.470000
@<TRIPOS>BOND
     1     1    22 1   
     2     1    23 2   
     3     1    28 1   
     4     2     3 1   
     5     2    21 2   
     6     2    23 1   
     7     3     4 1   
     8     3    29 1   
     9     3    30 1   
    10     4    24 1   
    11     4    26 2   
    12     5     6 ar  
    13     5    20 ar  
    14     5    24 1   
    15     6     7 ar  
    16     6    31 1   
    17     7     8 ar  
    18     7    32 1   
    19     8     9 1   
    20     8    19 ar  
    21     9    10 1   
    22     9    33 1   
    23     9    34 1   
    24    10    25 1   
    25    10    35 1   
    26    10    36 1   
    27    11    12 1   
    28    11    25 1   
    29    11    37 1   
    30    11    38 1   
    31    12    13 1   
    32    12    27 1   
    33    12    39 1   
    34    13    14 ar  
    35    13    18 ar  
    36    14    15 ar  
    37    14    40 1   
    38    15    16 ar  
    39    15    41 1   
    40    16    17 ar  
    41    16    42 1   
    42    17    18 ar  
    43    17    43 1   
    44    18    44 1   
    45    19    20 ar  
    46    19    45 1   
    47    20    46 1   
    48    21    28 1   
    49    21    47 1   
    50    22    48 1   
    51    22    49 1   
    52    24    50 1   
    53    25    51 1   
    54    27    52 1   
@<TRIPOS>SUBSTRUCTURE
     1 H6U         1 TEMP              0 ****  ****    0 ROOT
