@<TRIPOS>MOLECULE
H6V
   53    56     1     0     0
SMALL
abcg2


@<TRIPOS>ATOM
      1 C02          1.7980     3.9270    -0.7810 c          1 H6V       0.715600
      2 C04          2.5770     2.6220    -0.8060 ca         1 H6V      -0.078600
      3 C05          1.9230     1.3960    -0.7400 ca         1 H6V      -0.205000
      4 C06          2.6630     0.1970    -0.7720 ca         1 H6V       0.333800
      5 C07          1.8190    -0.9590    -0.6930 cc         1 H6V      -0.288800
      6 C08          0.5130    -0.6240    -0.6050 cd         1 H6V      -0.131600
      7 C09         -0.6930    -1.5170    -0.6010 c3         1 H6V       0.280800
      8 C10         -0.3830    -2.8910    -0.0530 ca         1 H6V      -0.062300
      9 C11         -0.3900    -3.1220     1.3190 ca         1 H6V      -0.119000
     10 C12         -0.0640    -4.3860     1.7880 ca         1 H6V      -0.084000
     11 C13          0.2710    -5.4110     0.9170 ca         1 H6V      -0.182000
     12 C14          0.2800    -5.1890    -0.4650 ca         1 H6V       0.276000
     13 C20         -0.0580    -3.9120    -0.9310 ca         1 H6V      -0.166000
     14 C23         -3.9560    -0.2980     0.5610 c3         1 H6V       0.177800
     15 C25         -4.5560     1.8860     1.2960 c6         1 H6V       0.174800
     16 C26         -4.1830     3.3600     1.3050 c6         1 H6V      -0.080900
     17 C27         -4.1850     3.9240    -0.1100 c6         1 H6V      -0.068400
     18 C28         -3.2970     3.0670    -1.0010 c6         1 H6V      -0.080900
     19 C29         -3.6950     1.6000    -0.9240 c6         1 H6V       0.174800
     20 C32          4.6120     1.3390    -0.9260 ca         1 H6V       0.303900
     21 C33          3.9570     2.5720    -0.9040 ca         1 H6V      -0.146000
     22 N15          0.5530    -6.2120    -1.3480 nv         1 H6V      -1.078000
     23 N24         -3.6690     1.1160     0.4440 n3         1 H6V      -0.695600
     24 N31          3.9950     0.1720    -0.8630 nb         1 H6V      -0.679000
     25 O01          2.4510     4.9790    -0.8700 o          1 H6V      -0.706500
     26 O03          0.5630     3.7960    -0.6740 o          1 H6V      -0.706500
     27 O21         -1.6780    -0.8400     0.1300 os         1 H6V      -0.422000
     28 S30          0.2260     1.0980    -0.5960 ss         1 H6V       0.250400
     29 H1           2.1920    -1.9740    -0.7100 ha         1 H6V       0.191000
     30 H2          -1.0170    -1.6300    -1.6490 h1         1 H6V       0.038700
     31 H3          -0.6460    -2.3300     2.0110 ha         1 H6V       0.134000
     32 H4          -0.0650    -4.5810     2.8540 ha         1 H6V       0.103000
     33 H5           0.5260    -6.3910     1.3040 ha         1 H6V       0.100000
     34 H6          -0.0680    -3.7230    -2.0000 ha         1 H6V       0.110000
     35 H7          -3.2160    -2.2370     0.0730 h1         1 H6V       0.017700
     36 H8          -3.1550    -1.1140    -1.2830 h1         1 H6V       0.017700
     37 H9          -4.9740    -0.5550     0.2190 h1         1 H6V       0.025200
     38 H10         -3.9150    -0.5610     1.6230 h1         1 H6V       0.025200
     39 H13         -4.8810     3.9050     1.9460 hc         1 H6V       0.059450
     40 H14         -3.1870     3.4760     1.7430 hc         1 H6V       0.059450
     41 H15         -5.2090     3.9240    -0.5000 hc         1 H6V       0.029700
     42 H16         -3.8490     4.9630    -0.1110 hc         1 H6V       0.029700
     43 H17         -3.3560     3.3970    -2.0410 hc         1 H6V       0.059450
     44 H18         -2.2530     3.1680    -0.6920 hc         1 H6V       0.059450
     45 H19         -4.6960     1.4670    -1.3760 h1         1 H6V       0.017450
     46 H20         -2.9980     1.0180    -1.5280 h1         1 H6V       0.017450
     47 H21          5.6940     1.3090    -1.0010 h4         1 H6V      -0.009900
     48 H22          4.5320     3.4860    -0.9660 ha         1 H6V       0.131000
     49 H23          1.0920    -6.9770    -0.9740 hn         1 H6V       0.440500
     50 H24          0.8920    -5.9280    -2.2530 hn         1 H6V       0.440500
     51 C22         -3.0010    -1.1960    -0.1990 c3         1 H6V       0.160600
     52 H11         -4.4970     1.4850     2.3120 h1         1 H6V       0.017450
     53 H12         -5.6110     1.7830     0.9790 h1         1 H6V       0.017450
@<TRIPOS>BOND
     1     1     2 1   
     2     1    25 1   
     3     1    26 1   
     4     2     3 ar  
     5     2    21 ar  
     6     3     4 ar  
     7     3    28 1   
     8     4     5 1   
     9     4    24 ar  
    10     5     6 2   
    11     5    29 1   
    12     6     7 1   
    13     6    28 1   
    14     7     8 1   
    15     7    27 1   
    16     7    30 1   
    17     8     9 ar  
    18     8    13 ar  
    19     9    10 ar  
    20     9    31 1   
    21    10    11 ar  
    22    10    32 1   
    23    11    12 ar  
    24    11    33 1   
    25    12    13 ar  
    26    12    22 1   
    27    13    34 1   
    28    14    23 1   
    29    14    37 1   
    30    14    38 1   
    31    14    51 1   
    32    15    16 1   
    33    15    23 1   
    34    15    52 1   
    35    15    53 1   
    36    16    17 1   
    37    16    39 1   
    38    16    40 1   
    39    17    18 1   
    40    17    41 1   
    41    17    42 1   
    42    18    19 1   
    43    18    43 1   
    44    18    44 1   
    45    19    23 1   
    46    19    45 1   
    47    19    46 1   
    48    20    21 ar  
    49    20    24 ar  
    50    20    47 1   
    51    21    48 1   
    52    22    49 1   
    53    22    50 1   
    54    27    51 1   
    55    35    51 1   
    56    36    51 1   
@<TRIPOS>SUBSTRUCTURE
     1 H6V         1 TEMP              0 ****  ****    0 ROOT
