@<TRIPOS>MOLECULE
H6V
   53    56     1     0     0
SMALL
No Charge or Current Charge


@<TRIPOS>ATOM
      1 C02          2.5750     4.0680    -0.7680 c          1 H6V       0.715600
      2 C04          3.1830     2.6760    -0.6760 ca         1 H6V      -0.078600
      3 C05          2.4230     1.4820    -0.6440 ca         1 H6V      -0.205000
      4 C06          3.0520     0.2530    -0.5650 ca         1 H6V       0.333800
      5 C07          2.1420    -0.8580    -0.5620 cc         1 H6V      -0.288800
      6 C08          0.8180    -0.4460    -0.6380 cd         1 H6V      -0.131600
      7 C09         -0.4210    -1.3120    -0.6850 c3         1 H6V       0.280800
      8 C10         -0.2040    -2.7430    -0.1790 ca         1 H6V      -0.062300
      9 C11          0.1100    -2.9830     1.1740 ca         1 H6V      -0.119000
     10 C12          0.3070    -4.2950     1.6360 ca         1 H6V      -0.084000
     11 C13          0.1910    -5.3760     0.7460 ca         1 H6V      -0.182000
     12 C14         -0.1200    -5.1470    -0.6020 ca         1 H6V       0.276000
     13 C20         -0.3170    -3.8370    -1.0630 ca         1 H6V      -0.166000
     14 C23         -3.7680    -0.3440     0.7680 c3         1 H6V       0.177800
     15 C25         -4.6770     1.8610     1.4040 c6         1 H6V       0.174800
     16 C26         -4.6150     3.3880     1.1590 c6         1 H6V      -0.080900
     17 C27         -4.9930     3.7320    -0.2990 c6         1 H6V      -0.068400
     18 C28         -4.1190     2.9160    -1.2780 c6         1 H6V      -0.080900
     19 C29         -4.1930     1.4020    -0.9640 c6         1 H6V       0.174800
     20 C32          5.1370     1.2090    -0.5430 ca         1 H6V       0.303900
     21 C33          4.5870     2.5040    -0.6260 ca         1 H6V      -0.146000
     22 N15         -0.2310    -6.2030    -1.4650 nv         1 H6V      -1.078000
     23 N24         -3.8140     1.1130     0.4500 n3         1 H6V      -0.695600
     24 N31          4.3850     0.0840    -0.5130 nb         1 H6V      -0.679000
     25 O01          3.2090     4.9320    -1.3580 o          1 H6V      -0.706500
     26 O03          1.5070     4.2870    -0.2140 o          1 H6V      -0.706500
     27 O21         -1.4380    -0.6780     0.1110 os         1 H6V      -0.422000
     28 S30          0.6490     1.3340    -0.7340 ss         1 H6V       0.250400
     29 H1           2.4510    -1.8970    -0.5120 ha         1 H6V       0.191000
     30 H2          -0.7450    -1.3520    -1.7340 h1         1 H6V       0.038700
     31 H3           0.2010    -2.1490     1.8660 ha         1 H6V       0.134000
     32 H4           0.5490    -4.4730     2.6820 ha         1 H6V       0.103000
     33 H5           0.3440    -6.3900     1.1090 ha         1 H6V       0.100000
     34 H6          -0.5580    -3.6640    -2.1080 ha         1 H6V       0.110000
     35 H7          -2.8230    -2.2430     0.2990 h1         1 H6V       0.017700
     36 H8          -3.0610    -1.2000    -1.1150 h1         1 H6V       0.017700
     37 H9          -4.7700    -0.7760     0.6380 h1         1 H6V       0.025200
     38 H10         -3.5090    -0.4720     1.8270 h1         1 H6V       0.025200
     39 H13         -5.2890     3.9040     1.8560 hc         1 H6V       0.059450
     40 H14         -3.6010     3.7510     1.3760 hc         1 H6V       0.059450
     41 H15         -6.0550     3.5040    -0.4700 hc         1 H6V       0.029700
     42 H16         -4.8650     4.8070    -0.4810 hc         1 H6V       0.029700
     43 H17         -4.4420     3.0970    -2.3120 hc         1 H6V       0.059450
     44 H18         -3.0750     3.2510    -1.2120 hc         1 H6V       0.059450
     45 H19         -5.2130     1.0410    -1.1630 h1         1 H6V       0.017450
     46 H20         -3.5210     0.8790    -1.6590 h1         1 H6V       0.017450
     47 H21          6.2160     1.0680    -0.5020 h4         1 H6V      -0.009900
     48 H22          5.2520     3.3630    -0.6460 ha         1 H6V       0.131000
     49 H23          0.0440    -7.1350    -1.1620 hn         1 H6V       0.440500
     50 H24         -0.3180    -6.0360    -2.4650 hn         1 H6V       0.440500
     51 C22         -2.7700    -1.2060    -0.0570 c3         1 H6V       0.160600
     52 H11         -4.3610     1.6590     2.4380 h1         1 H6V       0.017450
     53 H12         -5.7200     1.5250     1.3120 h1         1 H6V       0.017450
@<TRIPOS>BOND
     1     1     2 1   
     2     1    25 1   
     3     1    26 1   
     4     2     3 ar  
     5     2    21 ar  
     6     3     4 ar  
     7     3    28 1   
     8     4     5 1   
     9     4    24 ar  
    10     5     6 2   
    11     5    29 1   
    12     6     7 1   
    13     6    28 1   
    14     7     8 1   
    15     7    27 1   
    16     7    30 1   
    17     8     9 ar  
    18     8    13 ar  
    19     9    10 ar  
    20     9    31 1   
    21    10    11 ar  
    22    10    32 1   
    23    11    12 ar  
    24    11    33 1   
    25    12    13 ar  
    26    12    22 1   
    27    13    34 1   
    28    14    23 1   
    29    14    37 1   
    30    14    38 1   
    31    14    51 1   
    32    15    16 1   
    33    15    23 1   
    34    15    52 1   
    35    15    53 1   
    36    16    17 1   
    37    16    39 1   
    38    16    40 1   
    39    17    18 1   
    40    17    41 1   
    41    17    42 1   
    42    18    19 1   
    43    18    43 1   
    44    18    44 1   
    45    19    23 1   
    46    19    45 1   
    47    19    46 1   
    48    20    21 ar  
    49    20    24 ar  
    50    20    47 1   
    51    21    48 1   
    52    22    49 1   
    53    22    50 1   
    54    27    51 1   
    55    35    51 1   
    56    36    51 1   
@<TRIPOS>SUBSTRUCTURE
     1 H6V         1 TEMP              0 ****  ****    0 ROOT
