@<TRIPOS>MOLECULE
H6W
   46    49     1     0     0
SMALL
No Charge or Current Charge


@<TRIPOS>ATOM
      1 C4          -4.4320    -0.1150    -0.0770 c3         1 H6W      -0.098400
      2 C14          3.4480    -2.5430     0.1390 ca         1 H6W       0.037100
      3 C5          -2.9090     0.0970    -0.0320 c3         1 H6W       0.225800
      4 C6          -1.3460     2.0910    -0.0480 cc         1 H6W       0.654900
      5 C11          2.5270     0.1130     0.1360 ca         1 H6W       0.025200
      6 C7          -1.3080     3.5280    -0.1290 cc         1 H6W      -0.270000
      7 C8          -0.1140     4.2370    -0.1200 cd         1 H6W       0.000000
      8 C9           2.9260     2.6930    -0.0020 cc         1 H6W       0.411500
      9 C10          2.1080     1.5310     0.1270 cc         1 H6W      -0.258800
     10 C12          1.6890    -0.9550     0.5740 ca         1 H6W      -0.111000
     11 C13          2.1460    -2.2910     0.5750 ca         1 H6W      -0.094000
     12 N1          -6.2600    -1.8930    -0.2180 n3         1 H6W      -0.713600
     13 N2          -2.5830     1.5320    -0.0800 nu         1 H6W      -0.924100
     14 C3          -4.8140    -1.6110    -0.0270 c3         1 H6W       0.168800
     15 N3           0.9900     3.3990    -0.0060 na         1 H6W       0.080900
     16 C1          -6.5240    -3.3380    -0.4010 c3         1 H6W       0.149100
     17 C2          -7.1320    -1.3030     0.8270 c3         1 H6W       0.149100
     18 N4           2.2860     3.8570    -0.0730 nd         1 H6W      -0.580100
     19 C15          4.2690    -1.5330    -0.2660 ca         1 H6W       0.054100
     20 C16          3.8480    -0.1980    -0.2740 ca         1 H6W      -0.106000
     21 O1           5.4980    -1.9800    -0.6300 os         1 H6W      -0.348100
     22 C17          5.3680    -3.4400    -0.4900 c5         1 H6W       0.374600
     23 O2           4.0510    -3.7580     0.0880 os         1 H6W      -0.347100
     24 C18          0.8290     2.0220     0.0820 cd         1 H6W       0.448500
     25 N5          -0.3260     1.2640     0.0470 nd         1 H6W      -0.764000
     26 H1          -4.8880     0.4120     0.7690 hc         1 H6W       0.052200
     27 H2          -4.8330     0.3260    -0.9980 hc         1 H6W       0.052200
     28 H3          -2.5100    -0.3490     0.8910 h1         1 H6W       0.057200
     29 H4          -2.4460    -0.4230    -0.8830 h1         1 H6W       0.057200
     30 H5          -2.2450     4.0670    -0.2100 ha         1 H6W       0.138000
     31 H6           0.0250     5.3100    -0.1920 h4         1 H6W       0.162000
     32 H7           4.0070     2.7160    -0.0460 h4         1 H6W       0.047800
     33 H8           0.6900    -0.7690     0.9510 ha         1 H6W       0.140000
     34 H9           1.5060    -3.1020     0.9160 ha         1 H6W       0.127000
     35 H11         -3.3450     2.2000    -0.1670 hn         1 H6W       0.496000
     36 H12         -4.2440    -2.1220    -0.8160 h1         1 H6W       0.034200
     37 H13         -4.4750    -2.0290     0.9310 h1         1 H6W       0.034200
     38 H14         -6.2650    -3.9020     0.5050 h1         1 H6W       0.031533
     39 H15         -7.5850    -3.5150    -0.6240 h1         1 H6W       0.031533
     40 H16         -5.9350    -3.7390    -1.2360 h1         1 H6W       0.031533
     41 H17         -7.0510    -0.2090     0.8430 h1         1 H6W       0.031533
     42 H18         -8.1850    -1.5500     0.6370 h1         1 H6W       0.031533
     43 H19         -6.8650    -1.6850     1.8220 h1         1 H6W       0.031533
     44 H20          4.5370     0.5710    -0.6080 ha         1 H6W       0.127000
     45 H21          5.4450    -3.9030    -1.4800 h2         1 H6W       0.060700
     46 H10          6.1600    -3.8200     0.1660 h2         1 H6W       0.060700
@<TRIPOS>BOND
     1     1     3 1   
     2     1    14 1   
     3     1    26 1   
     4     1    27 1   
     5     2    11 ar  
     6     2    19 ar  
     7     2    23 1   
     8     3    13 1   
     9     3    28 1   
    10     3    29 1   
    11     4     6 1   
    12     4    13 1   
    13     4    25 2   
    14     5     9 1   
    15     5    10 ar  
    16     5    20 ar  
    17     6     7 2   
    18     6    30 1   
    19     7    15 1   
    20     7    31 1   
    21     8     9 1   
    22     8    18 2   
    23     8    32 1   
    24     9    24 2   
    25    10    11 ar  
    26    10    33 1   
    27    11    34 1   
    28    12    14 1   
    29    12    16 1   
    30    12    17 1   
    31    13    35 1   
    32    14    36 1   
    33    14    37 1   
    34    15    18 1   
    35    15    24 1   
    36    16    38 1   
    37    16    39 1   
    38    16    40 1   
    39    17    41 1   
    40    17    42 1   
    41    17    43 1   
    42    19    20 ar  
    43    19    21 1   
    44    20    44 1   
    45    21    22 1   
    46    22    23 1   
    47    22    45 1   
    48    22    46 1   
    49    24    25 1   
@<TRIPOS>SUBSTRUCTURE
     1 H6W         1 TEMP              0 ****  ****    0 ROOT
