@<TRIPOS>MOLECULE
H6W
   46    49     1     0     0
SMALL
abcg2


@<TRIPOS>ATOM
      1 C4          -4.4490    -0.0260    -0.0220 c3         1 H6W      -0.098400
      2 C14          3.2410    -2.6020     0.0410 ca         1 H6W       0.037100
      3 C5          -2.9750     0.2770    -0.2420 c3         1 H6W       0.225800
      4 C6          -1.5070     2.2390    -0.1620 cc         1 H6W       0.654900
      5 C11          2.4520     0.0550    -0.0130 ca         1 H6W       0.025200
      6 C7          -1.3730     3.6710    -0.1740 cc         1 H6W      -0.270000
      7 C8          -0.1340     4.2010    -0.1420 cd         1 H6W       0.000000
      8 C9           2.8750     2.5940    -0.0260 cc         1 H6W       0.411500
      9 C10          2.0440     1.4550    -0.0410 cc         1 H6W      -0.258800
     10 C12          1.5170    -0.9820    -0.0240 ca         1 H6W      -0.111000
     11 C13          1.8980    -2.3290     0.0030 ca         1 H6W      -0.094000
     12 N1          -6.1060    -1.8820    -0.0700 n3         1 H6W      -0.713600
     13 N2          -2.7340     1.7010    -0.1740 nu         1 H6W      -0.924100
     14 C3          -4.6990    -1.5270    -0.0600 c3         1 H6W       0.168800
     15 N3           0.9290     3.3610    -0.0950 na         1 H6W       0.080900
     16 C1          -6.2740    -3.2950    -0.3360 c3         1 H6W       0.149100
     17 C2          -6.7840    -1.5100     1.1530 c3         1 H6W       0.149100
     18 N4           2.2170     3.7340    -0.0590 nd         1 H6W      -0.580100
     19 C15          4.1800    -1.5840     0.0510 ca         1 H6W       0.054100
     20 C16          3.8280    -0.2610     0.0240 ca         1 H6W      -0.106000
     21 O1           5.4240    -2.1220     0.1130 os         1 H6W      -0.348100
     22 C17          5.2570    -3.5210    -0.0750 c5         1 H6W       0.374600
     23 O2           3.8760    -3.8020     0.1000 os         1 H6W      -0.347100
     24 C18          0.7570     1.9950    -0.0880 cd         1 H6W       0.448500
     25 N5          -0.4610     1.4390    -0.1260 nd         1 H6W      -0.764000
     26 H1          -4.7580     0.4000     0.9350 hc         1 H6W       0.052200
     27 H2          -5.0490     0.4540    -0.8020 hc         1 H6W       0.052200
     28 H3          -2.3720    -0.2210     0.5210 h1         1 H6W       0.057200
     29 H4          -2.6490    -0.1230    -1.2080 h1         1 H6W       0.057200
     30 H5          -2.2400     4.3140    -0.2070 ha         1 H6W       0.138000
     31 H6           0.0770     5.2610    -0.1480 h4         1 H6W       0.162000
     32 H7           3.9550     2.6140     0.0110 h4         1 H6W       0.047800
     33 H8           0.4630    -0.7470    -0.0560 ha         1 H6W       0.140000
     34 H9           1.1560    -3.1150    -0.0010 ha         1 H6W       0.127000
     35 H11         -3.5150     2.3190    -0.3250 hn         1 H6W       0.496000
     36 H12         -4.2510    -1.9280    -0.9750 h1         1 H6W       0.034200
     37 H13         -4.1650    -2.0050     0.7810 h1         1 H6W       0.034200
     38 H14         -5.8320    -3.9400     0.4410 h1         1 H6W       0.031533
     39 H15         -7.3350    -3.5390    -0.4040 h1         1 H6W       0.031533
     40 H16         -5.8090    -3.5560    -1.2880 h1         1 H6W       0.031533
     41 H17         -6.7610    -0.4310     1.3030 h1         1 H6W       0.031533
     42 H18         -7.8320    -1.8060     1.0980 h1         1 H6W       0.031533
     43 H19         -6.3480    -1.9820     2.0490 h1         1 H6W       0.031533
     44 H20          4.5870     0.5100     0.0340 ha         1 H6W       0.127000
     45 H21          5.5690    -3.7990    -1.0880 h2         1 H6W       0.060700
     46 H10          5.8420    -4.0650     0.6670 h2         1 H6W       0.060700
@<TRIPOS>BOND
     1     1     3 1   
     2     1    14 1   
     3     1    26 1   
     4     1    27 1   
     5     2    11 ar  
     6     2    19 ar  
     7     2    23 1   
     8     3    13 1   
     9     3    28 1   
    10     3    29 1   
    11     4     6 1   
    12     4    13 1   
    13     4    25 2   
    14     5     9 1   
    15     5    10 ar  
    16     5    20 ar  
    17     6     7 2   
    18     6    30 1   
    19     7    15 1   
    20     7    31 1   
    21     8     9 1   
    22     8    18 2   
    23     8    32 1   
    24     9    24 2   
    25    10    11 ar  
    26    10    33 1   
    27    11    34 1   
    28    12    14 1   
    29    12    16 1   
    30    12    17 1   
    31    13    35 1   
    32    14    36 1   
    33    14    37 1   
    34    15    18 1   
    35    15    24 1   
    36    16    38 1   
    37    16    39 1   
    38    16    40 1   
    39    17    41 1   
    40    17    42 1   
    41    17    43 1   
    42    19    20 ar  
    43    19    21 1   
    44    20    44 1   
    45    21    22 1   
    46    22    23 1   
    47    22    45 1   
    48    22    46 1   
    49    24    25 1   
@<TRIPOS>SUBSTRUCTURE
     1 H6W         1 TEMP              0 ****  ****    0 ROOT
