@<TRIPOS>MOLECULE
H6X
   82    86     1     0     0
SMALL
No Charge or Current Charge


@<TRIPOS>ATOM
      1 C1          -0.5980    -1.9480    14.8810 c3         1 H6X      -0.034100
      2 C2           0.0520    -3.3170    15.0230 ca         1 H6X      -0.011300
      3 C3           0.3390    -4.0900    13.8850 ca         1 H6X      -0.182500
      4 C4           0.9320    -5.3550    14.0080 ca         1 H6X       0.179100
      5 C5           1.2450    -5.8610    15.2870 ca         1 H6X      -0.287000
      6 C6           0.9580    -5.0910    16.4330 ca         1 H6X       0.179100
      7 C7           0.3640    -3.8270    16.2940 ca         1 H6X      -0.182500
      8 O8           1.1860    -6.0580    12.8490 os         1 H6X      -0.342600
      9 O9           1.2370    -5.5290    17.7110 os         1 H6X      -0.342600
     10 C10          1.8440    -6.8080    17.9710 c3         1 H6X       0.150400
     11 C11          1.7910    -7.3640    12.8580 c3         1 H6X       0.150400
     12 C13         -5.0030     3.8090    13.3960 ca         1 H6X       0.324000
     13 C14         -5.5910     3.2430    12.2540 ca         1 H6X      -0.205000
     14 C15         -6.1160     4.0620    11.2270 ca         1 H6X       0.137100
     15 C16         -6.0640     5.4860    11.3570 ca         1 H6X       0.243000
     16 C17         -5.4810     6.0310    12.5190 ca         1 H6X      -0.111000
     17 C18         -4.9640     5.2030    13.5280 ca         1 H6X      -0.180000
     18 N19         -6.5750     6.3820    10.3710 nh         1 H6X      -0.808400
     19 C20         -5.8130     7.5980     9.9590 c6         1 H6X       0.221800
     20 C21         -6.2490     8.1000     8.5660 c6         1 H6X      -0.107400
     21 C22         -7.7570     8.4750     8.5620 c6         1 H6X       0.201500
     22 C23         -8.6180     7.4400     9.3560 c6         1 H6X      -0.107400
     23 C24         -7.8630     6.1240     9.6620 c6         1 H6X       0.221800
     24 N25         -8.2550     8.7550     7.1790 n3         1 H6X      -0.747600
     25 C26         -9.5310     9.5480     7.1550 c6         1 H6X       0.161800
     26 C27        -10.1150     9.6560     5.7100 c6         1 H6X       0.151300
     27 N28        -10.4570     8.3220     5.1020 n3         1 H6X      -0.723600
     28 C29         -9.7320     7.1880     5.7700 c6         1 H6X       0.151300
     29 C30         -8.2900     7.5700     6.2420 c6         1 H6X       0.161800
     30 C31        -11.9090     8.0740     4.9760 c3         1 H6X       0.156100
     31 C32         -3.1090     0.1210    15.8890 ca         1 H6X       0.153400
     32 N33         -3.6470     1.1000    13.3730 nb         1 H6X      -0.237500
     33 C34         -3.9290     1.7590    14.5140 ca         1 H6X       0.382900
     34 N35         -3.6780     1.3360    15.7650 nb         1 H6X      -0.237500
     35 C36         -2.7860    -0.6600    14.7640 ca         1 H6X      -0.245300
     36 C37         -3.0790    -0.1140    13.5010 ca         1 H6X       0.153400
     37 C38         -2.1380    -2.0300    14.9070 c3         1 H6X      -0.008100
     38 O39         -6.6660     3.4970    10.0820 os         1 H6X      -0.336100
     39 C40         -6.7350     2.0770     9.8640 c3         1 H6X       0.145900
     40 H1          -0.2610    -1.2840    15.6870 hc         1 H6X       0.052700
     41 H2          -0.2800    -1.4750    13.9430 hc         1 H6X       0.052700
     42 H3           0.0990    -3.7100    12.8950 ha         1 H6X       0.128000
     43 H4           1.7040    -6.8370    15.3890 ha         1 H6X       0.120000
     44 H5           0.1440    -3.2430    17.1840 ha         1 H6X       0.128000
     45 H6           1.9760    -6.9530    19.0510 h1         1 H6X       0.040367
     46 H7           1.2140    -7.6230    17.5930 h1         1 H6X       0.040367
     47 H8           2.8310    -6.8740    17.4970 h1         1 H6X       0.040367
     48 H9           1.9000    -7.7380    11.8320 h1         1 H6X       0.040367
     49 H10          2.7880    -7.3300    13.3150 h1         1 H6X       0.040367
     50 H11          1.1700    -8.0770    13.4150 h1         1 H6X       0.040367
     51 H12         -4.4250     3.5290    15.3190 hn         1 H6X       0.509000
     52 H13         -5.6490     2.1660    12.1820 ha         1 H6X       0.153000
     53 H14         -5.4400     7.1090    12.6510 ha         1 H6X       0.115000
     54 H15         -4.5230     5.6530    14.4140 ha         1 H6X       0.112000
     55 H16         -4.7360     7.3730     9.9300 h1         1 H6X       0.038200
     56 H17         -5.9620     8.4030    10.6940 h1         1 H6X       0.038200
     57 H18         -6.0240     7.3260     7.8220 hc         1 H6X       0.052200
     58 H19         -5.6520     8.9780     8.2860 hc         1 H6X       0.052200
     59 H20         -7.8250     9.4150     9.1320 h1         1 H6X       0.049700
     60 H21         -8.9190     7.8930    10.3090 hc         1 H6X       0.052200
     61 H22         -9.5530     7.2060     8.8350 hc         1 H6X       0.052200
     62 H23         -8.5140     5.4870    10.2790 h1         1 H6X       0.038200
     63 H24         -7.6740     5.5840     8.7230 h1         1 H6X       0.038200
     64 H26         -9.3510    10.5610     7.5430 h1         1 H6X       0.044450
     65 H27        -10.2950     9.0920     7.8010 h1         1 H6X       0.044450
     66 H28         -9.3640    10.1580     5.0820 h1         1 H6X       0.045200
     67 H29        -10.9940    10.3180     5.7260 h1         1 H6X       0.045200
     68 H31        -10.2970     6.8450     6.6490 h1         1 H6X       0.045200
     69 H32         -9.6690     6.3280     5.0870 h1         1 H6X       0.045200
     70 H33         -7.8290     6.6810     6.6950 h1         1 H6X       0.044450
     71 H34         -7.6940     7.8030     5.3480 h1         1 H6X       0.044450
     72 H35        -12.3900     8.8730     4.3960 h1         1 H6X       0.028367
     73 H36        -12.0970     7.1220     4.4630 h1         1 H6X       0.028367
     74 H37        -12.3860     8.0330     5.9650 h1         1 H6X       0.028367
     75 H38         -2.9080    -0.2260    16.9020 h4         1 H6X       0.022100
     76 H39         -2.8530    -0.6500    12.5810 h4         1 H6X       0.022100
     77 H40         -2.4750    -2.6920    14.0990 hc         1 H6X       0.053200
     78 H41         -2.4550    -2.5030    15.8440 hc         1 H6X       0.053200
     79 H42         -7.2000     1.8640     8.8940 h1         1 H6X       0.040367
     80 H43         -5.7310     1.6330     9.8640 h1         1 H6X       0.040367
     81 H44         -7.3380     1.5910    10.6420 h1         1 H6X       0.040367
     82 N12         -4.4860     3.0300    14.4320 nu         1 H6X      -0.924900
@<TRIPOS>BOND
     1     1     2 1   
     2     1    37 1   
     3     1    40 1   
     4     1    41 1   
     5     2     3 ar  
     6     2     7 ar  
     7     3     4 ar  
     8     3    42 1   
     9     4     5 ar  
    10     4     8 1   
    11     5     6 ar  
    12     5    43 1   
    13     6     7 ar  
    14     6     9 1   
    15     7    44 1   
    16     8    11 1   
    17     9    10 1   
    18    10    45 1   
    19    10    46 1   
    20    10    47 1   
    21    11    48 1   
    22    11    49 1   
    23    11    50 1   
    24    12    13 ar  
    25    12    17 ar  
    26    12    82 1   
    27    13    14 ar  
    28    13    52 1   
    29    14    15 ar  
    30    14    38 1   
    31    15    16 ar  
    32    15    18 1   
    33    16    17 ar  
    34    16    53 1   
    35    17    54 1   
    36    18    19 1   
    37    18    23 1   
    38    19    20 1   
    39    19    55 1   
    40    19    56 1   
    41    20    21 1   
    42    20    57 1   
    43    20    58 1   
    44    21    22 1   
    45    21    24 1   
    46    21    59 1   
    47    22    23 1   
    48    22    60 1   
    49    22    61 1   
    50    23    62 1   
    51    23    63 1   
    52    24    25 1   
    53    24    29 1   
    54    25    26 1   
    55    25    64 1   
    56    25    65 1   
    57    26    27 1   
    58    26    66 1   
    59    26    67 1   
    60    27    28 1   
    61    27    30 1   
    62    28    29 1   
    63    28    68 1   
    64    28    69 1   
    65    29    70 1   
    66    29    71 1   
    67    30    72 1   
    68    30    73 1   
    69    30    74 1   
    70    31    34 ar  
    71    31    35 ar  
    72    31    75 1   
    73    32    33 ar  
    74    32    36 ar  
    75    33    34 ar  
    76    33    82 1   
    77    35    36 ar  
    78    35    37 1   
    79    36    76 1   
    80    37    77 1   
    81    37    78 1   
    82    38    39 1   
    83    39    79 1   
    84    39    80 1   
    85    39    81 1   
    86    51    82 1   
@<TRIPOS>SUBSTRUCTURE
     1 H6X         1 TEMP              0 ****  ****    0 ROOT
