@<TRIPOS>MOLECULE
H6X
   82    86     1     0     0
SMALL
abcg2


@<TRIPOS>ATOM
      1 C1          -0.8620    -1.8500    14.7040 c3         1 H6X      -0.034100
      2 C2          -0.2210    -3.2050    14.8180 ca         1 H6X      -0.011300
      3 C3          -0.0600    -3.9960    13.6880 ca         1 H6X      -0.182500
      4 C4           0.5110    -5.2620    13.7980 ca         1 H6X       0.179100
      5 C5           0.9220    -5.7480    15.0390 ca         1 H6X      -0.287000
      6 C6           0.7510    -4.9480    16.1690 ca         1 H6X       0.179100
      7 C7           0.1820    -3.6820    16.0600 ca         1 H6X      -0.182500
      8 O8           0.6390    -5.9560    12.6510 os         1 H6X      -0.342600
      9 O9           1.1190    -5.3300    17.4070 os         1 H6X      -0.342600
     10 C10          1.7600    -6.5770    17.5790 c3         1 H6X       0.150400
     11 C11          1.2300    -7.2390    12.6880 c3         1 H6X       0.150400
     12 C13         -4.9290     3.9490    13.3690 ca         1 H6X       0.324000
     13 C14         -5.2980     3.3930    12.1400 ca         1 H6X      -0.205000
     14 C15         -5.7530     4.2040    11.1090 ca         1 H6X       0.137100
     15 C16         -5.9040     5.5970    11.2770 ca         1 H6X       0.243000
     16 C17         -5.5270     6.1210    12.5110 ca         1 H6X      -0.111000
     17 C18         -5.0410     5.3250    13.5380 ca         1 H6X      -0.180000
     18 N19         -6.3510     6.3900    10.2220 nh         1 H6X      -0.808400
     19 C20         -5.9800     7.7920    10.2290 c6         1 H6X       0.221800
     20 C21         -6.3620     8.4280     8.9020 c6         1 H6X      -0.107400
     21 C22         -7.8860     8.4890     8.7450 c6         1 H6X       0.201500
     22 C23         -8.5340     7.3190     9.5230 c6         1 H6X      -0.107400
     23 C24         -7.6510     6.0800     9.6180 c6         1 H6X       0.221800
     24 N25         -8.2700     8.6480     7.3520 n3         1 H6X      -0.747600
     25 C26         -9.6150     9.1760     7.1940 c6         1 H6X       0.161800
     26 C27        -10.0450     9.0580     5.7410 c6         1 H6X       0.151300
     27 N28        -10.1520     7.6720     5.2920 n3         1 H6X      -0.723600
     28 C29         -9.2470     6.7910     6.0170 c6         1 H6X       0.151300
     29 C30         -7.9930     7.5400     6.4400 c6         1 H6X       0.161800
     30 C31        -11.5010     7.1570     5.3140 c3         1 H6X       0.156100
     31 C32         -3.0360     0.3870    15.8900 ca         1 H6X       0.153400
     32 N33         -4.0460     1.1200    13.4990 nb         1 H6X      -0.237500
     33 C34         -4.0020     1.9330    14.5490 ca         1 H6X       0.382900
     34 N35         -3.5260     1.6040    15.7570 nb         1 H6X      -0.237500
     35 C36         -2.9980    -0.5450    14.8560 ca         1 H6X      -0.245300
     36 C37         -3.5440    -0.0960    13.6650 ca         1 H6X       0.153400
     37 C38         -2.3680    -1.8950    15.0030 c3         1 H6X      -0.008100
     38 O39         -6.0580     3.7230     9.8860 os         1 H6X      -0.336100
     39 C40         -5.9550     2.3350     9.6520 c3         1 H6X       0.145900
     40 H1          -0.3840    -1.1510    15.3950 hc         1 H6X       0.052700
     41 H2          -0.7100    -1.4520    13.6980 hc         1 H6X       0.052700
     42 H3          -0.3670    -3.6310    12.7150 ha         1 H6X       0.128000
     43 H4           1.3700    -6.7280    15.1220 ha         1 H6X       0.120000
     44 H5           0.0650    -3.0710    16.9470 ha         1 H6X       0.128000
     45 H6           1.9860    -6.6630    18.6390 h1         1 H6X       0.040367
     46 H7           1.1180    -7.4130    17.2900 h1         1 H6X       0.040367
     47 H8           2.6940    -6.6380    17.0140 h1         1 H6X       0.040367
     48 H9           1.2380    -7.6040    11.6630 h1         1 H6X       0.040367
     49 H10          2.2580    -7.2060    13.0570 h1         1 H6X       0.040367
     50 H11          0.6570    -7.9380    13.3030 h1         1 H6X       0.040367
     51 H12         -4.3390     3.7350    15.3080 hn         1 H6X       0.509000
     52 H13         -5.1900     2.3310    11.9950 ha         1 H6X       0.153000
     53 H14         -5.6110     7.1850    12.6870 ha         1 H6X       0.115000
     54 H15         -4.7550     5.7850    14.4760 ha         1 H6X       0.112000
     55 H16         -4.9000     7.8640    10.3800 h1         1 H6X       0.038200
     56 H17         -6.4460     8.3650    11.0470 h1         1 H6X       0.038200
     57 H18         -5.9080     7.8420     8.0980 hc         1 H6X       0.052200
     58 H19         -5.9410     9.4320     8.8330 hc         1 H6X       0.052200
     59 H20         -8.2190     9.4090     9.2350 h1         1 H6X       0.049700
     60 H21         -8.7640     7.6540    10.5380 hc         1 H6X       0.052200
     61 H22         -9.4920     7.0410     9.0790 hc         1 H6X       0.052200
     62 H23         -8.1690     5.3360    10.2260 h1         1 H6X       0.038200
     63 H24         -7.5240     5.6300     8.6280 h1         1 H6X       0.038200
     64 H26         -9.6330    10.2260     7.5030 h1         1 H6X       0.044450
     65 H27        -10.3580     8.6590     7.8240 h1         1 H6X       0.044450
     66 H28         -9.3250     9.6010     5.1170 h1         1 H6X       0.045200
     67 H29        -11.0060     9.5570     5.6020 h1         1 H6X       0.045200
     68 H31         -9.7270     6.3680     6.9150 h1         1 H6X       0.045200
     69 H32         -8.9730     5.9390     5.3860 h1         1 H6X       0.045200
     70 H33         -7.3000     6.8350     6.8970 h1         1 H6X       0.044450
     71 H34         -7.4860     7.9090     5.5390 h1         1 H6X       0.044450
     72 H35        -12.1590     7.7830     4.7110 h1         1 H6X       0.028367
     73 H36        -11.5200     6.1530     4.8840 h1         1 H6X       0.028367
     74 H37        -11.9310     7.0860     6.3260 h1         1 H6X       0.028367
     75 H38         -2.6520     0.1270    16.8720 h4         1 H6X       0.022100
     76 H39         -3.5840    -0.7510    12.8000 h4         1 H6X       0.022100
     77 H40         -2.8480    -2.6050    14.3250 hc         1 H6X       0.053200
     78 H41         -2.5250    -2.2730    16.0160 hc         1 H6X       0.053200
     79 H42         -6.2540     2.1740     8.6190 h1         1 H6X       0.040367
     80 H43         -4.9330     1.9700     9.7820 h1         1 H6X       0.040367
     81 H44         -6.6170     1.7580    10.3040 h1         1 H6X       0.040367
     82 N12         -4.4610     3.2100    14.4550 nu         1 H6X      -0.924900
@<TRIPOS>BOND
     1     1     2 1   
     2     1    37 1   
     3     1    40 1   
     4     1    41 1   
     5     2     3 ar  
     6     2     7 ar  
     7     3     4 ar  
     8     3    42 1   
     9     4     5 ar  
    10     4     8 1   
    11     5     6 ar  
    12     5    43 1   
    13     6     7 ar  
    14     6     9 1   
    15     7    44 1   
    16     8    11 1   
    17     9    10 1   
    18    10    45 1   
    19    10    46 1   
    20    10    47 1   
    21    11    48 1   
    22    11    49 1   
    23    11    50 1   
    24    12    13 ar  
    25    12    17 ar  
    26    12    82 1   
    27    13    14 ar  
    28    13    52 1   
    29    14    15 ar  
    30    14    38 1   
    31    15    16 ar  
    32    15    18 1   
    33    16    17 ar  
    34    16    53 1   
    35    17    54 1   
    36    18    19 1   
    37    18    23 1   
    38    19    20 1   
    39    19    55 1   
    40    19    56 1   
    41    20    21 1   
    42    20    57 1   
    43    20    58 1   
    44    21    22 1   
    45    21    24 1   
    46    21    59 1   
    47    22    23 1   
    48    22    60 1   
    49    22    61 1   
    50    23    62 1   
    51    23    63 1   
    52    24    25 1   
    53    24    29 1   
    54    25    26 1   
    55    25    64 1   
    56    25    65 1   
    57    26    27 1   
    58    26    66 1   
    59    26    67 1   
    60    27    28 1   
    61    27    30 1   
    62    28    29 1   
    63    28    68 1   
    64    28    69 1   
    65    29    70 1   
    66    29    71 1   
    67    30    72 1   
    68    30    73 1   
    69    30    74 1   
    70    31    34 ar  
    71    31    35 ar  
    72    31    75 1   
    73    32    33 ar  
    74    32    36 ar  
    75    33    34 ar  
    76    33    82 1   
    77    35    36 ar  
    78    35    37 1   
    79    36    76 1   
    80    37    77 1   
    81    37    78 1   
    82    38    39 1   
    83    39    79 1   
    84    39    80 1   
    85    39    81 1   
    86    51    82 1   
@<TRIPOS>SUBSTRUCTURE
     1 H6X         1 TEMP              0 ****  ****    0 ROOT
