@<TRIPOS>MOLECULE
H6Z
   39    39     1     0     0
SMALL
abcg2


@<TRIPOS>ATOM
      1 P1          -1.4610     0.4180     0.8990 p5         1 H6Z       1.391800
      2 C8           5.1850    -0.6980     0.2480 c3         1 H6Z       0.165600
      3 C5           2.0080     1.3680    -0.4890 c6         1 H6Z       0.167300
      4 C6           3.4580     1.1070    -0.0900 c6         1 H6Z       0.091300
      5 O6          -0.2320     0.6180    -0.1720 os         1 H6Z      -0.548400
      6 C2          -3.9660     0.4310     0.1070 c3         1 H6Z       0.216300
      7 C4           1.0880     0.4380     0.2850 c6         1 H6Z       0.233300
      8 C1          -4.3940    -0.9990    -0.2400 c3         1 H6Z       0.343300
      9 O2          -4.2460    -1.3030    -1.5940 oh         1 H6Z      -0.686000
     10 C3          -4.7820     1.5020    -0.5960 c3         1 H6Z      -0.093100
     11 O3          -1.4660    -0.9830     1.4390 o          1 H6Z      -0.830000
     12 O4          -1.5070     1.5650     1.8610 o          1 H6Z      -0.830000
     13 O5          -2.6050     0.6000    -0.2600 os         1 H6Z      -0.572400
     14 O8           4.2680     1.9240    -0.9080 oh         1 H6Z      -0.728000
     15 C7           3.7960    -0.3760    -0.2580 c6         1 H6Z       0.149300
     16 OX1          2.8790    -1.1570     0.4890 os         1 H6Z      -0.483000
     17 C9           1.5310    -1.0190     0.1190 c6         1 H6Z       0.341300
     18 OX2          1.2930    -1.4040    -1.1940 oh         1 H6Z      -0.651000
     19 H1           5.8980    -0.0350    -0.2570 h1         1 H6Z       0.015200
     20 H2           5.2390    -0.4710     1.3220 h1         1 H6Z       0.015200
     21 H3           1.9090     1.1540    -1.5650 h1         1 H6Z       0.064700
     22 H4           3.5760     1.3760     0.9700 h1         1 H6Z       0.046700
     23 H5          -4.0980     0.5540     1.1900 h1         1 H6Z       0.047700
     24 H6           1.1800     0.6850     1.3520 h1         1 H6Z       0.052700
     25 H7          -5.9470    -2.0750     0.1850 ho         1 H6Z       0.436000
     26 H8          -4.7720    -0.6910    -2.1220 ho         1 H6Z       0.436000
     27 H9          -4.6520     1.4700    -1.6800 hc         1 H6Z       0.031700
     28 H10         -5.8440     1.3980    -0.3770 hc         1 H6Z       0.031700
     29 H11         -4.4690     2.4900    -0.2600 hc         1 H6Z       0.031700
     30 H14          5.0470     2.1930    -0.4130 ho         1 H6Z       0.493000
     31 H15          3.7440    -0.6310    -1.3260 h1         1 H6Z       0.066700
     32 H16          6.3840    -2.2160     0.2290 ho         1 H6Z       0.488000
     33 H17          0.9810    -1.6480     0.8250 h2         1 H6Z       0.109700
     34 H18          1.3690    -2.3620    -1.2560 ho         1 H6Z       0.439000
     35 H19         -3.7280    -1.6950     0.2810 h2         1 H6Z       0.100700
     36 O7           1.6320     2.6930    -0.2080 oh         1 H6Z      -0.626000
     37 H13          2.2410     3.2710    -0.6800 ho         1 H6Z       0.430000
     38 O9           5.4690    -2.0510    -0.0160 oh         1 H6Z      -0.703000
     39 O1          -5.7140    -1.1400     0.1990 oh         1 H6Z      -0.686000
@<TRIPOS>BOND
     1     1     5 1   
     2     1    11 1   
     3     1    12 1   
     4     1    13 1   
     5     2    15 1   
     6     2    19 1   
     7     2    20 1   
     8     2    38 1   
     9     3     4 1   
    10     3     7 1   
    11     3    21 1   
    12     3    36 1   
    13     4    14 1   
    14     4    15 1   
    15     4    22 1   
    16     5     7 1   
    17     6     8 1   
    18     6    10 1   
    19     6    13 1   
    20     6    23 1   
    21     7    17 1   
    22     7    24 1   
    23     8     9 1   
    24     8    35 1   
    25     8    39 1   
    26     9    26 1   
    27    10    27 1   
    28    10    28 1   
    29    10    29 1   
    30    14    30 1   
    31    15    16 1   
    32    15    31 1   
    33    16    17 1   
    34    17    18 1   
    35    17    33 1   
    36    18    34 1   
    37    25    39 1   
    38    32    38 1   
    39    36    37 1   
@<TRIPOS>SUBSTRUCTURE
     1 H6Z         1 TEMP              0 ****  ****    0 ROOT
