@<TRIPOS>MOLECULE
H6Z
   39    39     1     0     0
SMALL
No Charge or Current Charge


@<TRIPOS>ATOM
      1 P1          -1.6360    -1.4080    -1.6220 p5         1 H6Z       1.391800
      2 C8           4.3840     0.1210     1.4450 c3         1 H6Z       0.165600
      3 C5           1.5330     0.9520    -1.1740 c6         1 H6Z       0.167300
      4 C6           2.5500     1.2410    -0.0310 c6         1 H6Z       0.091300
      5 O6          -0.2980    -0.5550    -1.9030 os         1 H6Z      -0.548400
      6 C2          -2.8990     0.4940    -0.2110 c3         1 H6Z       0.216300
      7 C4           0.6270    -0.2690    -0.8220 c6         1 H6Z       0.233300
      8 C1          -3.7750    -0.3920     0.7640 c3         1 H6Z       0.343300
      9 O2          -5.0360    -0.7240     0.1980 oh         1 H6Z      -0.686000
     10 C3          -3.5120     1.8690    -0.5700 c3         1 H6Z      -0.093100
     11 O3          -1.9850    -2.2400    -2.8110 o          1 H6Z      -0.830000
     12 O4          -1.5320    -2.2330    -0.3860 o          1 H6Z      -0.830000
     13 O5          -2.6800    -0.1880    -1.4610 os         1 H6Z      -0.572400
     14 O8           3.3930     2.3570    -0.4010 oh         1 H6Z      -0.728000
     15 C7           3.3750    -0.0540     0.2590 c6         1 H6Z       0.149300
     16 OX1          2.4690    -1.1450     0.5960 os         1 H6Z      -0.483000
     17 C9           1.5140    -1.5080    -0.4220 c6         1 H6Z       0.341300
     18 OX2          2.2570    -2.0430    -1.5210 oh         1 H6Z      -0.651000
     19 H1           5.0940     0.9160     1.1820 h1         1 H6Z       0.015200
     20 H2           3.8230     0.4620     2.3260 h1         1 H6Z       0.015200
     21 H3           2.1090     0.6850    -2.0730 h1         1 H6Z       0.064700
     22 H4           1.9800     1.4920     0.8770 h1         1 H6Z       0.046700
     23 H5          -1.9430     0.6850     0.2900 h1         1 H6Z       0.047700
     24 H6           0.0460     0.0030     0.0690 h1         1 H6Z       0.052700
     25 H7          -4.3540    -0.3760     2.6080 ho         1 H6Z       0.436000
     26 H8          -5.2970     0.0550    -0.3340 ho         1 H6Z       0.436000
     27 H9          -4.4750     1.7550    -1.0810 hc         1 H6Z       0.031700
     28 H10         -3.6670     2.4740     0.3310 hc         1 H6Z       0.031700
     29 H11         -2.8360     2.4240    -1.2310 hc         1 H6Z       0.031700
     30 H14          3.7750     2.7320     0.4270 ho         1 H6Z       0.493000
     31 H15          3.9540    -0.3240    -0.6350 h1         1 H6Z       0.066700
     32 H16          5.6460    -0.8900     2.5640 ho         1 H6Z       0.488000
     33 H17          0.8570    -2.2930    -0.0140 h2         1 H6Z       0.109700
     34 H18          2.8620    -2.7020    -1.1220 ho         1 H6Z       0.439000
     35 H19         -3.2360    -1.3140     1.0210 h2         1 H6Z       0.100700
     36 O7           0.7660     2.1440    -1.4380 oh         1 H6Z      -0.626000
     37 H13          1.4220     2.8730    -1.3780 ho         1 H6Z       0.430000
     38 O9           5.1070    -1.0830     1.7630 oh         1 H6Z      -0.703000
     39 O1          -4.0870     0.3090     1.9580 oh         1 H6Z      -0.686000
@<TRIPOS>BOND
     1     1     5 1   
     2     1    11 1   
     3     1    12 1   
     4     1    13 1   
     5     2    15 1   
     6     2    19 1   
     7     2    20 1   
     8     2    38 1   
     9     3     4 1   
    10     3     7 1   
    11     3    21 1   
    12     3    36 1   
    13     4    14 1   
    14     4    15 1   
    15     4    22 1   
    16     5     7 1   
    17     6     8 1   
    18     6    10 1   
    19     6    13 1   
    20     6    23 1   
    21     7    17 1   
    22     7    24 1   
    23     8     9 1   
    24     8    35 1   
    25     8    39 1   
    26     9    26 1   
    27    10    27 1   
    28    10    28 1   
    29    10    29 1   
    30    14    30 1   
    31    15    16 1   
    32    15    31 1   
    33    16    17 1   
    34    17    18 1   
    35    17    33 1   
    36    18    34 1   
    37    25    39 1   
    38    32    38 1   
    39    36    37 1   
@<TRIPOS>SUBSTRUCTURE
     1 H6Z         1 TEMP              0 ****  ****    0 ROOT
