@<TRIPOS>MOLECULE
H70
   21    22     1     0     0
SMALL
No Charge or Current Charge


@<TRIPOS>ATOM
      1 CH           3.8230    -0.3630    -0.8920 ca         1 H70       0.014000
      2 CG           1.6530     0.4870    -0.1440 ca         1 H70      -0.065000
      3 CD1          0.1920     0.4990    -0.1790 cc         1 H70      -0.066000
      4 CD2          2.3200     1.3800     0.7180 ca         1 H70      -0.048000
      5 CE2          3.7230     1.3940     0.7830 ca         1 H70       0.078000
      6 CR           2.4130    -0.3830    -0.9630 ca         1 H70       0.193100
      7 O            1.7900    -1.2250    -1.8460 oh         1 H70      -0.501100
      8 C3           4.4750     0.5220    -0.0180 ca         1 H70      -0.037000
      9 C7          -1.9750     1.1760    -0.2800 cc         1 H70      -0.095900
     10 C8          -1.9440    -0.1250     0.1550 cd         1 H70      -0.048900
     11 C9          -0.5950    -0.5450     0.2370 cd         1 H70      -0.051900
     12 N11         -0.6500     1.5740    -0.4550 na         1 H70      -0.074000
     13 Br1         -0.0140    -2.2330     0.8650 br         1 H70      -0.033100
     14 Br2         -3.4460    -1.1800     0.6040 br         1 H70      -0.021100
     15 Cl1          4.5390     2.5080     1.8730 cl         1 H70      -0.182000
     16 Br3         -3.4790     2.2800    -0.5610 br         1 H70      -0.009100
     17 Cl2          4.7890    -1.4390    -1.9030 cl         1 H70      -0.186000
     18 H3           5.5610     0.5360     0.0340 ha         1 H70       0.148000
     19 HD2          1.7490     2.0570     1.3490 ha         1 H70       0.139000
     20 H11         -0.3480     2.4970    -0.7500 hn         1 H70       0.364000
     21 H            2.4850    -1.7320    -2.3180 ho         1 H70       0.485000
@<TRIPOS>BOND
     1     1     6 ar  
     2     1     8 ar  
     3     1    17 1   
     4     2     3 1   
     5     2     4 ar  
     6     2     6 ar  
     7     3    11 2   
     8     3    12 1   
     9     4     5 ar  
    10     4    19 1   
    11     5     8 ar  
    12     5    15 1   
    13     6     7 1   
    14     7    21 1   
    15     8    18 1   
    16     9    10 2   
    17     9    12 1   
    18     9    16 1   
    19    10    11 1   
    20    10    14 1   
    21    11    13 1   
    22    12    20 1   
@<TRIPOS>SUBSTRUCTURE
     1 H70         1 TEMP              0 ****  ****    0 ROOT
