@<TRIPOS>MOLECULE
H70
   21    22     1     0     0
SMALL
abcg2


@<TRIPOS>ATOM
      1 CH           3.8120    -0.2980    -0.8770 ca         1 H70       0.014000
      2 CG           1.6730     0.4520    -0.0920 ca         1 H70      -0.065000
      3 CD1          0.2110     0.3830    -0.0930 cc         1 H70      -0.066000
      4 CD2          2.3170     1.3800     0.7200 ca         1 H70      -0.048000
      5 CE2          3.6970     1.4590     0.7260 ca         1 H70       0.078000
      6 CR           2.4200    -0.3950    -0.9200 ca         1 H70       0.193100
      7 O            1.7630    -1.2360    -1.7180 oh         1 H70      -0.501100
      8 C3           4.4580     0.6170    -0.0670 ca         1 H70      -0.037000
      9 C7          -1.8720     1.1660    -0.2430 cc         1 H70      -0.095900
     10 C8          -1.9700    -0.1530     0.1210 cd         1 H70      -0.048900
     11 C9          -0.6480    -0.6460     0.2160 cd         1 H70      -0.051900
     12 N11         -0.5590     1.4750    -0.3610 na         1 H70      -0.074000
     13 BR1         -0.1660    -2.3520     0.7520 br         1 H70      -0.033100
     14 BR2         -3.5310    -1.0930     0.4370 br         1 H70      -0.021100
     15 CL1          4.4880     2.6110     1.7460 cl         1 H70      -0.182000
     16 BR3         -3.2180     2.3890    -0.5540 br         1 H70      -0.009100
     17 CL2          4.7450    -1.3450    -1.8890 cl         1 H70      -0.186000
     18 H3           5.5380     0.6680    -0.0600 ha         1 H70       0.148000
     19 HD2          1.7310     2.0270     1.3600 ha         1 H70       0.139000
     20 H11         -0.1970     2.3650    -0.6710 hn         1 H70       0.364000
     21 H            2.3690    -1.7890    -2.2280 ho         1 H70       0.485000
@<TRIPOS>BOND
     1     1     6 ar  
     2     1     8 ar  
     3     1    17 1   
     4     2     3 1   
     5     2     4 ar  
     6     2     6 ar  
     7     3    11 2   
     8     3    12 1   
     9     4     5 ar  
    10     4    19 1   
    11     5     8 ar  
    12     5    15 1   
    13     6     7 1   
    14     7    21 1   
    15     8    18 1   
    16     9    10 2   
    17     9    12 1   
    18     9    16 1   
    19    10    11 1   
    20    10    14 1   
    21    11    13 1   
    22    12    20 1   
@<TRIPOS>SUBSTRUCTURE
     1 H70         1 TEMP              0 ****  ****    0 ROOT
