@<TRIPOS>MOLECULE
H71
   49    52     1     0     0
SMALL
No Charge or Current Charge


@<TRIPOS>ATOM
      1 C96          7.6720    -3.3320    -1.0640 c3         1 H71      -0.107600
      2 C95          7.0960    -2.4080     0.0270 c3         1 H71       0.173500
      3 C97          8.1550    -1.4120     0.5480 c3         1 H71      -0.107600
      4 N94          5.9360    -1.6900    -0.5340 n7         1 H71      -0.867400
      5 C93          5.0520    -1.0030     0.4260 c3         1 H71       0.167800
      6 C92          3.8360    -0.4170    -0.3110 c3         1 H71      -0.101400
      7 C91          2.8580     0.3020     0.6400 c3         1 H71       0.076600
      8 N9           1.6920     0.8630    -0.0650 na         1 H71      -0.254300
      9 C4           1.5920     2.1520    -0.5240 ca         1 H71       0.132500
     10 N3           2.4550     3.1860    -0.4670 nb         1 H71      -0.223000
     11 C2           2.0290     4.3430    -1.0250 ca         1 H71       0.183900
     12 N1           0.8360     4.5600    -1.6280 nb         1 H71      -0.304000
     13 C6           0.0000     3.5120    -1.6730 ca         1 H71       0.453900
     14 N6          -1.1980     3.7310    -2.2770 nv         1 H71      -1.065900
     15 C5           0.3520     2.2650    -1.1160 ca         1 H71      -0.096600
     16 N7          -0.3880     1.0820    -1.0660 nc         1 H71      -0.536100
     17 C8           0.4710     0.2750    -0.4190 cd         1 H71       0.394700
     18 S            0.1840    -1.4370    -0.0070 ss         1 H71       0.014800
     19 C1          -1.5690    -1.3740    -0.3870 ca         1 H71      -0.112000
     20 C11         -2.0250    -1.9040    -1.6160 ca         1 H71      -0.045000
     21 C12         -3.3960    -1.8430    -1.8940 ca         1 H71       0.052100
     22 O3          -4.0010    -2.3090    -3.0160 os         1 H71      -0.338100
     23 C'2         -5.4100    -1.9350    -2.8050 c5         1 H71       0.374600
     24 O1          -5.5630    -1.3480    -1.4640 os         1 H71      -0.338100
     25 C7          -4.2840    -1.2970    -1.0110 ca         1 H71       0.078100
     26 C3          -3.8710    -0.7700     0.2180 ca         1 H71      -0.087000
     27 C10         -2.4980    -0.8110     0.5300 ca         1 H71       0.240000
     28 I           -1.8420    -0.0060     2.4410 i          1 H71      -0.278000
     29 H961         8.5190    -3.9070    -0.6710 hc         1 H71       0.037367
     30 H962         6.9130    -4.0440    -1.4090 hc         1 H71       0.037367
     31 H963         8.0220    -2.7530    -1.9270 hc         1 H71       0.037367
     32 H95          6.7770    -3.0450     0.8650 h1         1 H71       0.055700
     33 H971         8.4760    -0.7260    -0.2450 hc         1 H71       0.037367
     34 H972         7.7650    -0.8190     1.3840 hc         1 H71       0.037367
     35 H973         9.0390    -1.9500     0.9110 hc         1 H71       0.037367
     36 HN94         6.2770    -1.0070    -1.2190 hn         1 H71       0.409000
     37 H931         4.7000    -1.7080     1.1920 h1         1 H71       0.029700
     38 H932         5.5860    -0.1900     0.9360 h1         1 H71       0.029700
     39 H921         4.1790     0.2920    -1.0740 hc         1 H71       0.061700
     40 H922         3.3060    -1.2230    -0.8320 hc         1 H71       0.061700
     41 H911         2.5070    -0.4010     1.4070 h1         1 H71       0.074200
     42 H912         3.3850     1.1140     1.1570 h1         1 H71       0.074200
     43 H2           2.7160     5.1870    -0.9840 h5         1 H71       0.045100
     44 HN61        -1.9160     3.0260    -2.1270 hn         1 H71       0.507000
     45 HN62        -1.5170     4.6910    -2.3790 hn         1 H71       0.507000
     46 H6          -1.3350    -2.3450    -2.3320 ha         1 H71       0.152000
     47 H'21        -5.7000    -1.1920    -3.5570 h2         1 H71       0.069700
     48 H'22        -6.0440    -2.8240    -2.8930 h2         1 H71       0.069700
     49 H3          -4.5890    -0.3450     0.9130 ha         1 H71       0.149000
@<TRIPOS>BOND
     1     1     2 1   
     2     1    29 1   
     3     1    30 1   
     4     1    31 1   
     5     2     3 1   
     6     2     4 1   
     7     2    32 1   
     8     3    33 1   
     9     3    34 1   
    10     3    35 1   
    11     4     5 1   
    12     4    36 1   
    13     5     6 1   
    14     5    37 1   
    15     5    38 1   
    16     6     7 1   
    17     6    39 1   
    18     6    40 1   
    19     7     8 1   
    20     7    41 1   
    21     7    42 1   
    22     8     9 1   
    23     8    17 1   
    24     9    10 ar  
    25     9    15 ar  
    26    10    11 ar  
    27    11    12 ar  
    28    11    43 1   
    29    12    13 ar  
    30    13    14 1   
    31    13    15 ar  
    32    14    44 1   
    33    14    45 1   
    34    15    16 1   
    35    16    17 2   
    36    17    18 1   
    37    18    19 1   
    38    19    20 ar  
    39    19    27 ar  
    40    20    21 ar  
    41    20    46 1   
    42    21    22 1   
    43    21    25 ar  
    44    22    23 1   
    45    23    24 1   
    46    23    47 1   
    47    23    48 1   
    48    24    25 1   
    49    25    26 ar  
    50    26    27 ar  
    51    26    49 1   
    52    27    28 1   
@<TRIPOS>SUBSTRUCTURE
     1 H71         1 TEMP              0 ****  ****    0 ROOT
