@<TRIPOS>MOLECULE
H71
   49    52     1     0     0
SMALL
abcg2


@<TRIPOS>ATOM
      1 C96          7.5640    -3.3170    -0.9620 c3         1 H71      -0.107600
      2 C95          6.7930    -2.5080     0.0730 c3         1 H71       0.173500
      3 C97          7.7570    -1.7430     0.9810 c3         1 H71      -0.107600
      4 N94          5.8170    -1.6690    -0.6130 n7         1 H71      -0.867400
      5 C93          4.8860    -0.9780     0.2560 c3         1 H71       0.167800
      6 C92          3.8190    -0.2640    -0.5590 c3         1 H71      -0.101400
      7 C91          2.8190     0.4390     0.3470 c3         1 H71       0.076600
      8 N9           1.7540     1.0910    -0.3880 na         1 H71      -0.254300
      9 C4           1.6390     2.4250    -0.6520 ca         1 H71       0.132500
     10 N3           2.4760     3.4030    -0.3170 nb         1 H71      -0.223000
     11 C2           2.0340     4.5830    -0.7170 ca         1 H71       0.183900
     12 N1           0.9130     4.8660    -1.3770 nb         1 H71      -0.304000
     13 C6           0.0820     3.8710    -1.7070 ca         1 H71       0.453900
     14 N6          -1.0450     4.1500    -2.3640 nv         1 H71      -1.065900
     15 C5           0.4430     2.5620    -1.3390 ca         1 H71      -0.096600
     16 N7          -0.1620     1.3470    -1.5180 nc         1 H71      -0.536100
     17 C8           0.6440     0.5070    -0.9370 cd         1 H71       0.394700
     18 S            0.4190    -1.2270    -0.8200 ss         1 H71       0.014800
     19 C1          -1.3440    -1.3100    -0.7690 ca         1 H71      -0.112000
     20 C11         -1.9860    -1.8400    -1.9010 ca         1 H71      -0.045000
     21 C12         -3.3470    -1.9760    -1.8490 ca         1 H71       0.052100
     22 O3          -4.1850    -2.4470    -2.7940 os         1 H71      -0.338100
     23 C'2         -5.4940    -2.4200    -2.2360 c5         1 H71       0.374600
     24 O1          -5.3830    -1.8230    -0.9460 os         1 H71      -0.338100
     25 C7          -4.0740    -1.5970    -0.7320 ca         1 H71       0.078100
     26 C3          -3.4740    -1.0700     0.3850 ca         1 H71      -0.087000
     27 C10         -2.0810    -0.9420     0.3520 ca         1 H71       0.240000
     28 I           -1.1520    -0.1500     2.0590 i          1 H71      -0.278000
     29 H961         8.2630    -4.0030    -0.4820 hc         1 H71       0.037367
     30 H962         6.8880    -3.9010    -1.5870 hc         1 H71       0.037367
     31 H963         8.1440    -2.6590    -1.6140 hc         1 H71       0.037367
     32 H95          6.2210    -3.2060     0.6940 h1         1 H71       0.055700
     33 H971         8.3770    -1.0600     0.3940 hc         1 H71       0.037367
     34 H972         7.2330    -1.1550     1.7360 hc         1 H71       0.037367
     35 H973         8.4240    -2.4270     1.5080 hc         1 H71       0.037367
     36 HN94         6.3110    -0.9880    -1.1810 hn         1 H71       0.409000
     37 H931         4.4060    -1.7220     0.9000 h1         1 H71       0.029700
     38 H932         5.3660    -0.2540     0.9310 h1         1 H71       0.029700
     39 H921         4.2840     0.4700    -1.2230 hc         1 H71       0.061700
     40 H922         3.3100    -0.9920    -1.1980 hc         1 H71       0.061700
     41 H911         2.3630    -0.2670     1.0450 h1         1 H71       0.074200
     42 H912         3.3130     1.2060     0.9430 h1         1 H71       0.074200
     43 H2           2.6620     5.4350    -0.4800 h5         1 H71       0.045100
     44 HN61        -1.6850     3.4230    -2.6320 hn         1 H71       0.507000
     45 HN62        -1.2730     5.0990    -2.6040 hn         1 H71       0.507000
     46 H6          -1.4170    -2.1230    -2.7760 ha         1 H71       0.152000
     47 H'21        -6.1520    -1.8170    -2.8640 h2         1 H71       0.069700
     48 H'22        -5.8780    -3.4380    -2.1390 h2         1 H71       0.069700
     49 H3          -4.0560    -0.7780     1.2480 ha         1 H71       0.149000
@<TRIPOS>BOND
     1     1     2 1   
     2     1    29 1   
     3     1    30 1   
     4     1    31 1   
     5     2     3 1   
     6     2     4 1   
     7     2    32 1   
     8     3    33 1   
     9     3    34 1   
    10     3    35 1   
    11     4     5 1   
    12     4    36 1   
    13     5     6 1   
    14     5    37 1   
    15     5    38 1   
    16     6     7 1   
    17     6    39 1   
    18     6    40 1   
    19     7     8 1   
    20     7    41 1   
    21     7    42 1   
    22     8     9 1   
    23     8    17 1   
    24     9    10 ar  
    25     9    15 ar  
    26    10    11 ar  
    27    11    12 ar  
    28    11    43 1   
    29    12    13 ar  
    30    13    14 1   
    31    13    15 ar  
    32    14    44 1   
    33    14    45 1   
    34    15    16 1   
    35    16    17 2   
    36    17    18 1   
    37    18    19 1   
    38    19    20 ar  
    39    19    27 ar  
    40    20    21 ar  
    41    20    46 1   
    42    21    22 1   
    43    21    25 ar  
    44    22    23 1   
    45    23    24 1   
    46    23    47 1   
    47    23    48 1   
    48    24    25 1   
    49    25    26 ar  
    50    26    27 ar  
    51    26    49 1   
    52    27    28 1   
@<TRIPOS>SUBSTRUCTURE
     1 H71         1 TEMP              0 ****  ****    0 ROOT
