@<TRIPOS>MOLECULE
H72
   42    45     1     0     0
SMALL
No Charge or Current Charge


@<TRIPOS>ATOM
      1 C4           3.8900     0.7010     0.3830 ca         1 H72      -0.128000
      2 C14         -6.1100    -1.8760    -0.7950 ca         1 H72      -0.166000
      3 C5           2.5640     0.6640    -0.0960 ca         1 H72       0.048200
      4 C6           1.8380     1.9420    -0.2610 cc         1 H72      -0.267800
      5 C11         -2.6010    -0.6410     0.0550 c3         1 H72       0.283100
      6 C7           2.3670     3.2500    -0.2770 cc         1 H72       0.418500
      7 C8          -0.9980     4.0730    -0.3680 cc         1 H72       0.002000
      8 C9          -1.9890     3.1040    -0.2670 cd         1 H72      -0.269000
      9 C10         -1.6770     1.7060    -0.1470 cd         1 H72       0.654900
     10 C12         -3.9930    -1.2300     0.1630 ca         1 H72      -0.177300
     11 C13         -4.8350    -1.3120    -0.9610 ca         1 H72      -0.061000
     12 N1           4.3700    -4.1770     0.1120 nt         1 H72      -0.606000
     13 N2           1.4770     4.2280    -0.3500 nd         1 H72      -0.579100
     14 C3           4.6400    -0.4750     0.5520 ca         1 H72      -0.067000
     15 N3           0.2790     3.5270    -0.3400 na         1 H72       0.080900
     16 O1           6.0680    -2.9590     0.8480 o          1 H72      -0.611100
     17 C2           4.0930    -1.7340     0.2330 ca         1 H72      -0.168600
     18 N4          -2.6940     0.8220    -0.0380 nu         1 H72      -0.926100
     19 C15         -6.4970    -2.3370     0.4740 ca         1 H72       0.346900
     20 N5          -5.6910    -2.2640     1.5600 nb         1 H72      -0.663000
     21 C16         -4.4620    -1.7180     1.3970 ca         1 H72       0.357900
     22 N6          -0.4370     1.1230    -0.1260 nd         1 H72      -0.766000
     23 C17          0.4830     2.1420    -0.2620 cd         1 H72       0.452500
     24 C18          2.0260    -0.5990    -0.4340 ca         1 H72      -0.128000
     25 C19          2.7730    -1.7780    -0.2690 ca         1 H72      -0.067000
     26 H1           4.3530     1.6470     0.6490 ha         1 H72       0.122500
     27 H3          -2.0040    -0.9320     0.9320 h1         1 H72       0.065700
     28 H4          -2.1020    -1.0500    -0.8350 h1         1 H72       0.065700
     29 H5           3.4130     3.5250    -0.2470 h4         1 H72       0.049800
     30 H6          -1.1180     5.1460    -0.4500 h4         1 H72       0.163000
     31 H7          -3.0260     3.4150    -0.2710 ha         1 H72       0.140000
     32 H8          -4.5100    -0.9500    -1.9350 ha         1 H72       0.122000
     33 H9           3.4270    -4.2230    -0.2370 hn         1 H72       0.311500
     34 H10          4.9140    -5.0180     0.2360 hn         1 H72       0.311500
     35 H11          5.6560    -0.4010     0.9350 ha         1 H72       0.117500
     36 H12         -3.6210     1.2370    -0.0740 hn         1 H72       0.502000
     37 H13         -7.4810    -2.7790     0.6280 h4         1 H72       0.023100
     38 H14         -3.8360    -1.6730     2.2880 h4         1 H72       0.026100
     39 H15          1.0350    -0.6900    -0.8630 ha         1 H72       0.122500
     40 H16          2.3090    -2.7220    -0.5470 ha         1 H72       0.117500
     41 C1           4.9240    -2.9850     0.4250 c          1 H72       0.619700
     42 H2          -6.7940    -1.9600    -1.6350 ha         1 H72       0.128000
@<TRIPOS>BOND
     1     1     3 ar  
     2     1    14 ar  
     3     1    26 1   
     4     2    11 ar  
     5     2    19 ar  
     6     2    42 1   
     7     3     4 1   
     8     3    24 ar  
     9     4     6 1   
    10     4    23 2   
    11     5    10 1   
    12     5    18 1   
    13     5    27 1   
    14     5    28 1   
    15     6    13 2   
    16     6    29 1   
    17     7     8 2   
    18     7    15 1   
    19     7    30 1   
    20     8     9 1   
    21     8    31 1   
    22     9    18 1   
    23     9    22 2   
    24    10    11 ar  
    25    10    21 ar  
    26    11    32 1   
    27    12    33 1   
    28    12    34 1   
    29    12    41 1   
    30    13    15 1   
    31    14    17 ar  
    32    14    35 1   
    33    15    23 1   
    34    16    41 2   
    35    17    25 ar  
    36    17    41 1   
    37    18    36 1   
    38    19    20 ar  
    39    19    37 1   
    40    20    21 ar  
    41    21    38 1   
    42    22    23 1   
    43    24    25 ar  
    44    24    39 1   
    45    25    40 1   
@<TRIPOS>SUBSTRUCTURE
     1 H72         1 TEMP              0 ****  ****    0 ROOT
