@<TRIPOS>MOLECULE
H72
   42    45     1     0     0
SMALL
bcc


@<TRIPOS>ATOM
      1 C4           4.0030     0.6630     0.1700 ca         1 H72      -0.146000
      2 C14         -6.0400    -2.1290    -0.7950 ca         1 H72      -0.249300
      3 C5           2.6050     0.6560     0.0680 ca         1 H72       0.048200
      4 C6           1.8610     1.9000    -0.0260 cc         1 H72      -0.267800
      5 C11         -2.6560    -0.5470    -0.1900 c3         1 H72       0.283100
      6 C7           2.3710     3.2160    -0.0600 cc         1 H72       0.418500
      7 C8          -0.9500     3.9820    -0.2600 cc         1 H72       0.034700
      8 C9          -2.0110     3.1500    -0.2730 cd         1 H72      -0.352300
      9 C10         -1.7690     1.7360    -0.1970 cd         1 H72       0.720200
     10 C12         -3.9900    -1.2010     0.0200 ca         1 H72      -0.242600
     11 C13         -4.8040    -1.5550    -1.0490 ca         1 H72      -0.079000
     12 N1           4.3350    -4.1320    -0.0370 nt         1 H72      -0.673000
     13 N2           1.4410     4.1410    -0.1490 nd         1 H72      -0.579100
     14 C3           4.7220    -0.5120     0.2630 ca         1 H72      -0.085000
     15 N3           0.2910     3.4470    -0.1740 na         1 H72       0.030200
     16 O1           6.0520    -2.9410     0.8000 o          1 H72      -0.611100
     17 C2           4.0800    -1.7500     0.2430 ca         1 H72      -0.168600
     18 N4          -2.8120     0.8930    -0.1910 nu         1 H72      -0.870900
     19 C15         -6.4160    -2.3280     0.5250 ca         1 H72       0.412200
     20 N5          -5.6490    -1.9960     1.5580 nb         1 H72      -0.663000
     21 C16         -4.4700    -1.4470     1.3020 ca         1 H72       0.423200
     22 N6          -0.5530     1.2350    -0.1220 nd         1 H72      -0.766000
     23 C17          0.4770     2.0870    -0.1040 cd         1 H72       0.452500
     24 C18          1.9650    -0.5900     0.0670 ca         1 H72      -0.146000
     25 C19          2.6900    -1.7660     0.1500 ca         1 H72      -0.085000
     26 H1           4.5450     1.5990     0.1820 ha         1 H72       0.140500
     27 H3          -1.9650    -0.8330     0.6060 h1         1 H72       0.065700
     28 H4          -2.2120    -0.8890    -1.1300 h1         1 H72       0.065700
     29 H5           3.4070     3.5200    -0.0240 h4         1 H72       0.049800
     30 H6          -1.0180     5.0590    -0.3130 h4         1 H72       0.181000
     31 H7          -3.0140     3.5460    -0.3380 ha         1 H72       0.158000
     32 H8          -4.4730    -1.3870    -2.0670 ha         1 H72       0.140000
     33 H9           3.4580    -4.1610    -0.5250 hn         1 H72       0.311500
     34 H10          4.8560    -4.9920     0.0130 hn         1 H72       0.311500
     35 H11          5.7990    -0.4660     0.3450 ha         1 H72       0.135500
     36 H12         -3.7310     1.2710    -0.3540 hn         1 H72       0.446800
     37 H13         -7.3760    -2.7760     0.7570 h4         1 H72       0.023100
     38 H14         -3.8600    -1.1890     2.1630 h4         1 H72       0.026100
     39 H15          0.8870    -0.6420     0.0060 ha         1 H72       0.140500
     40 H16          2.1390    -2.6980     0.1640 ha         1 H72       0.135500
     41 C1           4.9090    -2.9850     0.3590 c          1 H72       0.686700
     42 H2          -6.6990    -2.4200    -1.6010 ha         1 H72       0.146000
@<TRIPOS>BOND
     1     1     3 ar  
     2     1    14 ar  
     3     1    26 1   
     4     2    11 ar  
     5     2    19 ar  
     6     2    42 1   
     7     3     4 1   
     8     3    24 ar  
     9     4     6 1   
    10     4    23 2   
    11     5    10 1   
    12     5    18 1   
    13     5    27 1   
    14     5    28 1   
    15     6    13 2   
    16     6    29 1   
    17     7     8 2   
    18     7    15 1   
    19     7    30 1   
    20     8     9 1   
    21     8    31 1   
    22     9    18 1   
    23     9    22 2   
    24    10    11 ar  
    25    10    21 ar  
    26    11    32 1   
    27    12    33 1   
    28    12    34 1   
    29    12    41 1   
    30    13    15 1   
    31    14    17 ar  
    32    14    35 1   
    33    15    23 1   
    34    16    41 2   
    35    17    25 ar  
    36    17    41 1   
    37    18    36 1   
    38    19    20 ar  
    39    19    37 1   
    40    20    21 ar  
    41    21    38 1   
    42    22    23 1   
    43    24    25 ar  
    44    24    39 1   
    45    25    40 1   
@<TRIPOS>SUBSTRUCTURE
     1 H72         1 TEMP              0 ****  ****    0 ROOT
