@<TRIPOS>MOLECULE
H73
   82    87     1     0     0
SMALL
No Charge or Current Charge


@<TRIPOS>ATOM
      1 C01          1.8130    20.7500    11.0640 c          1 H73       0.718000
      2 C1           2.8140    16.8210    15.8640 c5         1 H73       0.176300
      3 C10          3.1040    18.2980    15.4810 c3         1 H73       0.060600
      4 C11          3.9310    17.8540    12.7130 c6         1 H73       0.109300
      5 C12          2.7290    18.6100    12.0970 c6         1 H73      -0.057400
      6 C13          3.1290    20.0010    11.5290 c6         1 H73       0.043500
      7 C14          5.4420    19.1520    11.1210 c6         1 H73       0.173800
      8 C15          5.0600    17.7560    11.6640 c6         1 H73      -0.058400
      9 C18          5.0030    24.3160     9.2820 c          1 H73       0.515800
     10 C19          9.4350    28.0810     6.8260 cc         1 H73       0.767800
     11 C2           4.0490    15.9410    16.2230 c5         1 H73       0.087300
     12 C20          9.4300    26.2230     8.2680 c          1 H73       0.619200
     13 C21          5.8470    25.3940     8.6040 ce         1 H73       0.310300
     14 C22          5.1220    26.4730     7.7040 c6         1 H73       0.204900
     15 C23          4.0880    27.2970     8.5250 c3         1 H73      -0.104100
     16 C24          4.4130    25.8080     6.4890 c3         1 H73      -0.104100
     17 C25          7.4190    27.2860     7.3460 cd         1 H73       0.458600
     18 C26          7.9570    26.2800     8.1420 cc         1 H73      -0.212600
     19 C27          5.1670    22.2730    10.7860 c3         1 H73       0.051000
     20 C3           3.3920    14.5300    16.1790 c5         1 H73       0.107300
     21 C4           2.3350    14.6960    15.0170 c5         1 H73       0.316300
     22 C5           1.6770    13.3360    12.9920 cc         1 H73       0.418700
     23 C6           3.5390    13.2730    11.9160 ca         1 H73      -0.099600
     24 C7           4.5870    13.0680    10.9950 ca         1 H73       0.451900
     25 C8           5.9830    14.2320    12.3820 ca         1 H73       0.184900
     26 C9           3.8100    13.9830    13.0600 ca         1 H73       0.143500
     27 N1           2.6250    14.0300    13.7470 na         1 H73      -0.297300
     28 N10         10.0690    27.1720     7.5640 ns         1 H73      -0.455400
     29 N11          7.1710    25.4210     8.7560 nf         1 H73      -0.481300
     30 N12          6.0970    27.4420     7.1570 nu         1 H73      -0.792200
     31 N2           2.2060    12.8550    11.8510 nd         1 H73      -0.554100
     32 N28          5.7280    23.4170    10.0510 ns         1 H73      -0.474900
     33 N3           4.4180    12.3830     9.8330 nv         1 H73      -1.066900
     34 N4           5.8170    13.5530    11.2220 nb         1 H73      -0.304000
     35 N5           5.0380    14.4730    13.3210 nb         1 H73      -0.228000
     36 N6           4.2720    19.8640    10.5330 n3         1 H73      -0.700600
     37 N8           8.1560    28.2160     6.6570 nd         1 H73      -0.780300
     38 O01          1.3870    20.5250     9.9360 o          1 H73      -0.719500
     39 O03          1.5220    21.7790    11.6610 o          1 H73      -0.719500
     40 O1           2.2120    16.1150    14.7660 os         1 H73      -0.447000
     41 O2           4.5990    16.2090    17.5330 oh         1 H73      -0.717000
     42 O3           2.8000    14.2810    17.4620 oh         1 H73      -0.725000
     43 O4           3.7860    24.2130     9.1870 o          1 H73      -0.575100
     44 S1           4.5410    18.5810    14.3170 ss         1 H73      -0.481000
     45 H1           2.0920    16.8270    16.6920 h1         1 H73       0.059700
     46 H10A         3.3220    18.8420    16.4080 h1         1 H73       0.085700
     47 H10          2.1930    18.7420    15.0620 h1         1 H73       0.085700
     48 H11          3.6130    16.8290    12.9350 h1         1 H73       0.056700
     49 H12          1.9300    18.7220    12.8390 hc         1 H73       0.054200
     50 H12A         2.3020    18.0030    11.2880 hc         1 H73       0.054200
     51 H02          3.5000    20.5890    12.3820 h1         1 H73       0.024700
     52 H14A         6.2280    19.0270    10.3610 h1         1 H73       0.014200
     53 H14          5.8790    19.7420    11.9400 h1         1 H73       0.014200
     54 H15A         4.7360    17.1170    10.8320 hc         1 H73       0.041200
     55 H15          5.9420    17.2720    12.1040 hc         1 H73       0.041200
     56 H2           4.8210    16.0260    15.4440 h1         1 H73       0.111700
     57 H23B         3.2540    26.6850     8.8820 hc         1 H73       0.052367
     58 H23A         4.5600    27.7570     9.4020 hc         1 H73       0.052367
     59 H23          3.6540    28.1050     7.9240 hc         1 H73       0.052367
     60 H24A         3.6010    25.1400     6.7960 hc         1 H73       0.052367
     61 H24B         3.9720    26.5600     5.8230 hc         1 H73       0.052367
     62 H24          5.1200    25.2160     5.8960 hc         1 H73       0.052367
     63 H27          4.3450    22.6270    11.4220 h1         1 H73       0.063700
     64 H27A         5.9530    21.8810    11.4430 h1         1 H73       0.063700
     65 H3           4.1330    13.7530    15.9400 h1         1 H73       0.079700
     66 H4           1.3690    14.2980    15.3540 h2         1 H73       0.088700
     67 H5           0.6470    13.2260    13.3130 h5         1 H73       0.066800
     68 H8           6.9780    14.6280    12.5790 h5         1 H73       0.041100
     69 HN10        11.0720    27.1960     7.6320 hn         1 H73       0.317500
     70 HN12         5.8410    28.1210     6.4450 hn         1 H73       0.491000
     71 HN28         6.7310    23.5720    10.0810 hn         1 H73       0.320500
     72 HN3A         5.1030    12.5210     9.0950 hn         1 H73       0.505000
     73 HN3          3.4610    12.2010     9.5400 hn         1 H73       0.505000
     74 HN9          9.6590    29.4820     5.5120 hn         1 H73       0.506500
     75 HN9A        11.0780    28.5990     5.8420 hn         1 H73       0.506500
     76 HO2          5.2140    16.9780    17.4450 ho         1 H73       0.511000
     77 HO3          3.3280    14.8850    18.0490 ho         1 H73       0.524000
     78 C16          4.6510    21.1390     9.8560 c3         1 H73       0.164800
     79 N9          10.1900    28.9440     6.1840 nv         1 H73      -1.063200
     80 H16          3.7970    21.5270     9.2860 h1         1 H73       0.056700
     81 H16A         5.4370    20.9300     9.1180 h1         1 H73       0.056700
     82 O5          10.0490    25.4070     8.9370 o          1 H73      -0.531000
@<TRIPOS>BOND
     1     1     6 1   
     2     1    38 1   
     3     1    39 1   
     4     2     3 1   
     5     2    11 1   
     6     2    40 1   
     7     2    45 1   
     8     3    44 1   
     9     3    46 1   
    10     3    47 1   
    11     4     5 1   
    12     4     8 1   
    13     4    44 1   
    14     4    48 1   
    15     5     6 1   
    16     5    49 1   
    17     5    50 1   
    18     6    36 1   
    19     6    51 1   
    20     7     8 1   
    21     7    36 1   
    22     7    52 1   
    23     7    53 1   
    24     8    54 1   
    25     8    55 1   
    26     9    13 1   
    27     9    32 1   
    28     9    43 2   
    29    10    28 1   
    30    10    37 2   
    31    10    79 1   
    32    11    20 1   
    33    11    41 1   
    34    11    56 1   
    35    12    18 1   
    36    12    28 1   
    37    12    82 2   
    38    13    14 1   
    39    13    29 2   
    40    14    15 1   
    41    14    16 1   
    42    14    30 1   
    43    15    57 1   
    44    15    58 1   
    45    15    59 1   
    46    16    60 1   
    47    16    61 1   
    48    16    62 1   
    49    17    18 2   
    50    17    30 1   
    51    17    37 1   
    52    18    29 1   
    53    19    32 1   
    54    19    63 1   
    55    19    64 1   
    56    19    78 1   
    57    20    21 1   
    58    20    42 1   
    59    20    65 1   
    60    21    27 1   
    61    21    40 1   
    62    21    66 1   
    63    22    27 1   
    64    22    31 2   
    65    22    67 1   
    66    23    24 ar  
    67    23    26 ar  
    68    23    31 1   
    69    24    33 1   
    70    24    34 ar  
    71    25    34 ar  
    72    25    35 ar  
    73    25    68 1   
    74    26    27 1   
    75    26    35 ar  
    76    28    69 1   
    77    30    70 1   
    78    32    71 1   
    79    33    72 1   
    80    33    73 1   
    81    36    78 1   
    82    41    76 1   
    83    42    77 1   
    84    74    79 1   
    85    75    79 1   
    86    78    80 1   
    87    78    81 1   
@<TRIPOS>SUBSTRUCTURE
     1 H73         1 TEMP              0 ****  ****    0 ROOT
