@<TRIPOS>MOLECULE
H73
   82    87     1     0     0
SMALL
abcg2


@<TRIPOS>ATOM
      1 C01          1.9980    21.2390    10.9150 c          1 H73       0.718000
      2 C1           2.0940    16.5680    15.5110 c5         1 H73       0.176300
      3 C10          2.3580    18.0040    15.0980 c3         1 H73       0.060600
      4 C11          3.3220    17.9100    12.4060 c6         1 H73       0.109300
      5 C12          2.3780    18.9550    11.8300 c6         1 H73      -0.057400
      6 C13          3.0620    20.2870    11.5240 c6         1 H73       0.043500
      7 C14          5.1780    19.1620    11.2350 c6         1 H73       0.173800
      8 C15          4.5660    17.8020    11.5300 c6         1 H73      -0.058400
      9 C18          5.1890    24.4530     9.9270 c          1 H73       0.515800
     10 C19          9.0180    26.9880     5.6280 cc         1 H73       0.767800
     11 C2           3.2200    15.8690    16.2640 c5         1 H73       0.087300
     12 C20          8.6510    24.8210     6.6750 c          1 H73       0.619200
     13 C21          5.8930    25.3200     8.9220 ce         1 H73       0.310300
     14 C22          5.3100    26.6790     8.5440 c6         1 H73       0.204900
     15 C23          4.9310    27.5320     9.7550 c3         1 H73      -0.104100
     16 C24          4.1080    26.4870     7.6140 c3         1 H73      -0.104100
     17 C25          7.3370    26.8230     7.1300 cd         1 H73       0.458600
     18 C26          7.5870    25.4670     7.3670 cc         1 H73      -0.212600
     19 C27          5.3310    22.2870    11.0660 c3         1 H73       0.051000
     20 C3           2.9410    14.3890    15.9630 c5         1 H73       0.107300
     21 C4           2.3310    14.4500    14.5590 c5         1 H73       0.316300
     22 C5           2.7630    13.6140    12.2740 cc         1 H73       0.418700
     23 C6           4.8160    13.9680    11.9810 ca         1 H73      -0.099600
     24 C7           6.1430    14.1080    11.5340 ca         1 H73       0.451900
     25 C8           6.6580    14.9040    13.6260 ca         1 H73       0.184900
     26 C9           4.5560    14.3440    13.2900 ca         1 H73       0.143500
     27 N1           3.2200    14.0990    13.4720 na         1 H73      -0.297300
     28 N10          9.3140    25.6750     5.7830 ns         1 H73      -0.455400
     29 N11          6.8970    24.7950     8.3350 nf         1 H73      -0.481300
     30 N12          6.3650    27.4080     7.8320 nu         1 H73      -0.792200
     31 N2           3.6800    13.5140    11.3620 nd         1 H73      -0.554100
     32 N28          5.9100    23.4030    10.3540 ns         1 H73      -0.474900
     33 N3           6.5230    13.7790    10.2990 nv         1 H73      -1.066900
     34 N4           7.0470    14.5900    12.3940 nb         1 H73      -0.304000
     35 N5           5.4520    14.8120    14.1560 nb         1 H73      -0.228000
     36 N6           4.1970    20.0510    10.6400 n3         1 H73      -0.700600
     37 N8           8.0460    27.5840     6.2840 nd         1 H73      -0.780300
     38 O01          1.6380    21.0140     9.7430 o          1 H73      -0.719500
     39 O03          1.5560    22.1190    11.6790 o          1 H73      -0.719500
     40 O1           1.8640    15.7610    14.3700 os         1 H73      -0.447000
     41 O2           3.1500    16.1800    17.6310 oh         1 H73      -0.717000
     42 O3           1.9520    13.8830    16.8220 oh         1 H73      -0.725000
     43 O4           4.0460    24.6880    10.3020 o          1 H73      -0.575100
     44 S1           3.8530    18.2980    14.1190 ss         1 H73      -0.481000
     45 H1           1.1950    16.5770    16.1450 h1         1 H73       0.059700
     46 H10A         2.4700    18.6000    16.0060 h1         1 H73       0.085700
     47 H10          1.4910    18.4090    14.5730 h1         1 H73       0.085700
     48 H11          2.8240    16.9420    12.4420 h1         1 H73       0.056700
     49 H12          1.5330    19.1230    12.5020 hc         1 H73       0.054200
     50 H12A         1.9620    18.5550    10.8990 hc         1 H73       0.054200
     51 H02          3.3930    20.7210    12.4810 h1         1 H73       0.024700
     52 H14A         6.0020    19.0340    10.5280 h1         1 H73       0.014200
     53 H14          5.6260    19.5710    12.1560 h1         1 H73       0.014200
     54 H15A         4.2680    17.3350    10.5870 hc         1 H73       0.041200
     55 H15          5.3120    17.1490    11.9870 hc         1 H73       0.041200
     56 H2           4.1840    16.1430    15.8270 h1         1 H73       0.111700
     57 H23B         4.0650    27.1330    10.2720 hc         1 H73       0.052367
     58 H23A         5.7600    27.6040    10.4600 hc         1 H73       0.052367
     59 H23          4.6840    28.5420     9.4220 hc         1 H73       0.052367
     60 H24A         3.2990    25.9700     8.1260 hc         1 H73       0.052367
     61 H24B         3.7360    27.4580     7.2790 hc         1 H73       0.052367
     62 H24          4.3880    25.9080     6.7320 hc         1 H73       0.052367
     63 H27          4.5390    22.6570    11.7150 h1         1 H73       0.063700
     64 H27A         6.1000    21.8560    11.7080 h1         1 H73       0.063700
     65 H3           3.8500    13.7770    15.9950 h1         1 H73       0.079700
     66 H4           1.4980    13.7450    14.4920 h2         1 H73       0.088700
     67 H5           1.7230    13.3450    12.1470 h5         1 H73       0.066800
     68 H8           7.4370    15.2830    14.2780 h5         1 H73       0.041100
     69 HN10        10.0750    25.2680     5.2540 hn         1 H73       0.317500
     70 HN12         6.1860    28.3830     7.6360 hn         1 H73       0.491000
     71 HN28         6.7960    23.2570     9.8930 hn         1 H73       0.320500
     72 HN3A         7.4740    13.9200    10.0050 hn         1 H73       0.505000
     73 HN3          5.8580    13.4460     9.6230 hn         1 H73       0.505000
     74 HN9          9.5070    28.6600     4.6120 hn         1 H73       0.506500
     75 HN9A        10.4610    27.2880     4.1920 hn         1 H73       0.506500
     76 HO2          4.0220    16.0660    18.0200 ho         1 H73       0.511000
     77 HO3          2.0820    14.3000    17.6830 ho         1 H73       0.524000
     78 C16          4.7880    21.2430    10.0760 c3         1 H73       0.164800
     79 N9           9.7550    27.7000     4.7780 nv         1 H73      -1.063200
     80 H16          4.0550    21.7320     9.4320 h1         1 H73       0.056700
     81 H16A         5.6100    20.9340     9.4230 h1         1 H73       0.056700
     82 O5           9.0140    23.6590     6.7780 o          1 H73      -0.531000
@<TRIPOS>BOND
     1     1     6 1   
     2     1    38 1   
     3     1    39 1   
     4     2     3 1   
     5     2    11 1   
     6     2    40 1   
     7     2    45 1   
     8     3    44 1   
     9     3    46 1   
    10     3    47 1   
    11     4     5 1   
    12     4     8 1   
    13     4    44 1   
    14     4    48 1   
    15     5     6 1   
    16     5    49 1   
    17     5    50 1   
    18     6    36 1   
    19     6    51 1   
    20     7     8 1   
    21     7    36 1   
    22     7    52 1   
    23     7    53 1   
    24     8    54 1   
    25     8    55 1   
    26     9    13 1   
    27     9    32 1   
    28     9    43 2   
    29    10    28 1   
    30    10    37 2   
    31    10    79 1   
    32    11    20 1   
    33    11    41 1   
    34    11    56 1   
    35    12    18 1   
    36    12    28 1   
    37    12    82 2   
    38    13    14 1   
    39    13    29 2   
    40    14    15 1   
    41    14    16 1   
    42    14    30 1   
    43    15    57 1   
    44    15    58 1   
    45    15    59 1   
    46    16    60 1   
    47    16    61 1   
    48    16    62 1   
    49    17    18 2   
    50    17    30 1   
    51    17    37 1   
    52    18    29 1   
    53    19    32 1   
    54    19    63 1   
    55    19    64 1   
    56    19    78 1   
    57    20    21 1   
    58    20    42 1   
    59    20    65 1   
    60    21    27 1   
    61    21    40 1   
    62    21    66 1   
    63    22    27 1   
    64    22    31 2   
    65    22    67 1   
    66    23    24 ar  
    67    23    26 ar  
    68    23    31 1   
    69    24    33 1   
    70    24    34 ar  
    71    25    34 ar  
    72    25    35 ar  
    73    25    68 1   
    74    26    27 1   
    75    26    35 ar  
    76    28    69 1   
    77    30    70 1   
    78    32    71 1   
    79    33    72 1   
    80    33    73 1   
    81    36    78 1   
    82    41    76 1   
    83    42    77 1   
    84    74    79 1   
    85    75    79 1   
    86    78    80 1   
    87    78    81 1   
@<TRIPOS>SUBSTRUCTURE
     1 H73         1 TEMP              0 ****  ****    0 ROOT
