@<TRIPOS>MOLECULE
H74
   59    62     1     0     0
SMALL
No Charge or Current Charge


@<TRIPOS>ATOM
      1 C17          7.7740    -1.2910     0.2220 ce         1 H74      -0.296200
      2 C10          2.1430     1.1280     0.1270 ca         1 H74      -0.039300
      3 C11          2.0290     1.7350    -1.1410 ca         1 H74      -0.092000
      4 C12          3.1000     1.6850    -2.0480 ca         1 H74      -0.095000
      5 C13          4.2930     1.0300    -1.7010 ca         1 H74      -0.132000
      6 C14          4.4240     0.4140    -0.4370 ca         1 H74      -0.034000
      7 C16          6.8270    -0.4930    -0.6190 c          1 H74       0.606300
      8 C04         -2.7080    -2.3970    -0.4510 ca         1 H74      -0.078600
      9 C05         -1.6950    -1.6180     0.1570 ca         1 H74      -0.206000
     10 C06         -1.3340    -1.8390     1.4740 ca         1 H74       0.332800
     11 C07         -0.3270    -0.9330     1.9520 cc         1 H74      -0.296800
     12 C08          0.0420    -0.0140     0.9800 cd         1 H74      -0.173600
     13 C09          0.9880     1.1530     1.1330 c3         1 H74       0.288800
     14 C20          3.3430     0.4690     0.4630 ca         1 H74      -0.155000
     15 C25         -3.4520     1.8470     0.9990 c6         1 H74       0.174300
     16 C26         -4.3090     1.2160    -0.1250 c6         1 H74      -0.080900
     17 C27         -5.2760     2.2530    -0.7370 c6         1 H74      -0.068400
     18 C28         -4.4880     3.5030    -1.1920 c6         1 H74      -0.080900
     19 C29         -3.6290     4.0710    -0.0370 c6         1 H74       0.174300
     20 C32         -2.8600    -3.5350     1.7100 ca         1 H74       0.305900
     21 C33         -3.2970    -3.3810     0.3780 ca         1 H74      -0.146000
     22 N15          5.5960    -0.2730    -0.0130 ns         1 H74      -0.137000
     23 N24         -2.7030     3.0470     0.5190 n3         1 H74      -0.703600
     24 N31         -1.8890    -2.7730     2.2660 nb         1 H74      -0.680000
     25 O01         -4.3400    -2.4640    -2.1500 o          1 H74      -0.703500
     26 O03         -2.3570    -1.8790    -2.7370 o          1 H74      -0.703500
     27 O19          7.1390    -0.0830    -1.7310 o          1 H74      -0.591100
     28 O21          0.2280     2.3660     0.9690 os         1 H74      -0.441000
     29 S30         -0.7940    -0.2690    -0.5800 ss         1 H74       0.261400
     30 H1           7.3890    -1.6110     1.1900 ha         1 H74       0.176000
     31 H4           1.1110     2.2440    -1.4260 ha         1 H74       0.141000
     32 H5           3.0030     2.1560    -3.0240 ha         1 H74       0.110000
     33 H6           5.0970     1.0100    -2.4290 ha         1 H74       0.139000
     34 H7           0.0590    -0.9300     2.9660 ha         1 H74       0.184000
     35 H8           1.4200     1.1240     2.1430 h1         1 H74       0.029700
     36 H9           3.4330    -0.0070     1.4370 ha         1 H74       0.105000
     37 H10         -0.0940     3.2120     2.8540 h1         1 H74       0.026700
     38 H11         -1.0980     1.7980     2.5140 h1         1 H74       0.026700
     39 H12         -2.3760     3.9510     2.4140 h1         1 H74       0.025700
     40 H13         -1.3080     4.5270     1.1380 h1         1 H74       0.025700
     41 H16         -3.6500     0.8190    -0.9090 hc         1 H74       0.059950
     42 H17         -4.8720     0.3610     0.2720 hc         1 H74       0.059950
     43 H18         -5.8160     1.8140    -1.5860 hc         1 H74       0.030700
     44 H19         -6.0310     2.5410     0.0080 hc         1 H74       0.030700
     45 H20         -3.8370     3.2450    -2.0380 hc         1 H74       0.059950
     46 H21         -5.1820     4.2740    -1.5540 hc         1 H74       0.059950
     47 H22         -3.0580     4.9310    -0.4150 h1         1 H74       0.017950
     48 H23         -4.2950     4.4470     0.7550 h1         1 H74       0.017950
     49 H24         -3.3070    -4.2910     2.3540 h4         1 H74      -0.007900
     50 H25         -4.0840    -4.0270    -0.0010 ha         1 H74       0.132000
     51 H26          5.5150    -0.6800     0.9090 hn         1 H74       0.147000
     52 C1           9.0380    -1.6190    -0.1450 c2         1 H74      -0.241000
     53 H2           9.4600    -1.3160    -1.1050 ha         1 H74       0.172500
     54 H3           9.6910    -2.2030     0.5070 ha         1 H74       0.172500
     55 C22         -0.6540     2.6950     2.0640 c3         1 H74       0.164600
     56 C23         -1.7860     3.6260     1.5460 c3         1 H74       0.175800
     57 H14         -4.1070     2.1230     1.8390 h1         1 H74       0.017950
     58 C02         -3.1720    -2.2120    -1.8880 c          1 H74       0.713600
     59 H15         -2.7610     1.0770     1.3680 h1         1 H74       0.017950
@<TRIPOS>BOND
     1     1     7 1   
     2     1    30 1   
     3     1    52 2   
     4     2     3 ar  
     5     2    13 1   
     6     2    14 ar  
     7     3     4 ar  
     8     3    31 1   
     9     4     5 ar  
    10     4    32 1   
    11     5     6 ar  
    12     5    33 1   
    13     6    14 ar  
    14     6    22 1   
    15     7    22 1   
    16     7    27 2   
    17     8     9 ar  
    18     8    21 ar  
    19     8    58 1   
    20     9    10 ar  
    21     9    29 1   
    22    10    11 1   
    23    10    24 ar  
    24    11    12 2   
    25    11    34 1   
    26    12    13 1   
    27    12    29 1   
    28    13    28 1   
    29    13    35 1   
    30    14    36 1   
    31    15    16 1   
    32    15    23 1   
    33    15    57 1   
    34    15    59 1   
    35    16    17 1   
    36    16    41 1   
    37    16    42 1   
    38    17    18 1   
    39    17    43 1   
    40    17    44 1   
    41    18    19 1   
    42    18    45 1   
    43    18    46 1   
    44    19    23 1   
    45    19    47 1   
    46    19    48 1   
    47    20    21 ar  
    48    20    24 ar  
    49    20    49 1   
    50    21    50 1   
    51    22    51 1   
    52    23    56 1   
    53    25    58 1   
    54    26    58 1   
    55    28    55 1   
    56    37    55 1   
    57    38    55 1   
    58    39    56 1   
    59    40    56 1   
    60    52    53 1   
    61    52    54 1   
    62    55    56 1   
@<TRIPOS>SUBSTRUCTURE
     1 H74         1 TEMP              0 ****  ****    0 ROOT
