@<TRIPOS>MOLECULE
H74
   59    62     1     0     0
SMALL
bcc


@<TRIPOS>ATOM
      1 C17          7.3880    -1.4230     0.1860 ce         1 H74      -0.246200
      2 C10          1.9820     1.2380     0.2530 ca         1 H74      -0.039300
      3 C11          1.8590     1.8490    -0.9900 ca         1 H74      -0.110000
      4 C12          2.9050     1.7500    -1.8960 ca         1 H74      -0.113000
      5 C13          4.0680     1.0540    -1.5990 ca         1 H74      -0.150000
      6 C14          4.1900     0.4370    -0.3520 ca         1 H74       0.058600
      7 C16          6.4400    -0.6040    -0.6130 c          1 H74       0.673300
      8 C04         -2.4130    -2.5970    -0.2820 ca         1 H74      -0.078600
      9 C05         -1.5060    -1.7250     0.3120 ca         1 H74      -0.144400
     10 C06         -0.8740    -2.0770     1.5210 ca         1 H74       0.398100
     11 C07          0.0130    -1.0480     1.9800 cc         1 H74      -0.246800
     12 C08          0.0340     0.0120     1.1420 cd         1 H74      -0.173600
     13 C09          0.8600     1.2630     1.2670 c3         1 H74       0.265600
     14 C20          3.1390     0.5420     0.5610 ca         1 H74      -0.173000
     15 C25         -3.6940     2.1500     0.9910 c6         1 H74       0.174300
     16 C26         -4.4790     1.5050    -0.1400 c6         1 H74      -0.080900
     17 C27         -5.1630     2.5640    -0.9950 c6         1 H74      -0.068400
     18 C28         -4.1370     3.5920    -1.4540 c6         1 H74      -0.080900
     19 C29         -3.3760     4.1630    -0.2670 c6         1 H74       0.174300
     20 C32         -1.9600    -4.0620     1.5790 ca         1 H74       0.371200
     21 C33         -2.6330    -3.7910     0.3850 ca         1 H74      -0.229300
     22 N15          5.3070    -0.2890     0.0670 ns         1 H74      -0.463100
     23 N24         -2.7270     3.1120     0.4940 n3         1 H74      -0.703600
     24 N31         -1.0990    -3.2350     2.1460 nb         1 H74      -0.680000
     25 O01         -3.9390    -3.0560    -2.0220 o          1 H74      -0.808800
     26 O03         -2.7180    -1.1850    -2.1170 o          1 H74      -0.808800
     27 O19          6.6700    -0.2600    -1.7600 o          1 H74      -0.591100
     28 O21          0.0840     2.4050     1.0470 os         1 H74      -0.394600
     29 S30         -1.0210    -0.1600    -0.2340 ss         1 H74       0.134500
     30 H1           7.1130    -1.6880     1.2000 ha         1 H74       0.126000
     31 H4           0.9660     2.3980    -1.2540 ha         1 H74       0.159000
     32 H5           2.8190     2.2280    -2.8640 ha         1 H74       0.128000
     33 H6           4.8580     1.0000    -2.3280 ha         1 H74       0.157000
     34 H7           0.5950    -1.1150     2.8890 ha         1 H74       0.134000
     35 H8           1.3030     1.2650     2.2750 h1         1 H74       0.029700
     36 H9           3.2300     0.0660     1.5320 ha         1 H74       0.123000
     37 H10         -0.3580     3.1100     2.9380 h1         1 H74       0.026700
     38 H11         -1.3390     1.7490     2.4080 h1         1 H74       0.026700
     39 H12         -2.4810     3.9990     2.4120 h1         1 H74       0.025700
     40 H13         -1.3710     4.5300     1.1610 h1         1 H74       0.025700
     41 H16         -3.7980     0.9100    -0.7540 hc         1 H74       0.059950
     42 H17         -5.2110     0.8150     0.2870 hc         1 H74       0.059950
     43 H18         -5.6610     2.1070    -1.8540 hc         1 H74       0.030700
     44 H19         -5.9430     3.0630    -0.4090 hc         1 H74       0.030700
     45 H20         -3.4250     3.1160    -2.1350 hc         1 H74       0.059950
     46 H21         -4.6160     4.4050    -2.0040 hc         1 H74       0.059950
     47 H22         -2.6110     4.8600    -0.6200 h1         1 H74       0.017950
     48 H23         -4.0740     4.7500     0.3590 h1         1 H74       0.017950
     49 H24         -2.1360    -5.0020     2.0900 h4         1 H74      -0.007900
     50 H25         -3.3220    -4.5190    -0.0200 ha         1 H74       0.150000
     51 H26          5.2440    -0.6460     1.0090 hn         1 H74       0.313500
     52 C1           8.5470    -1.8300    -0.3190 c2         1 H74      -0.141000
     53 H2           8.8500    -1.5840    -1.3290 ha         1 H74       0.122500
     54 H3           9.2320    -2.4280     0.2660 ha         1 H74       0.122500
     55 C22         -0.8590     2.6720     2.0640 c3         1 H74       0.141400
     56 C23         -1.8920     3.6490     1.5460 c3         1 H74       0.175800
     57 H14         -4.3970     2.6300     1.6990 h1         1 H74       0.017950
     58 C02         -3.0940    -2.2540    -1.5960 c          1 H74       0.924200
     59 H15         -3.1710     1.3710     1.5480 h1         1 H74       0.017950
@<TRIPOS>BOND
     1     1     7 1   
     2     1    30 1   
     3     1    52 2   
     4     2     3 ar  
     5     2    13 1   
     6     2    14 ar  
     7     3     4 ar  
     8     3    31 1   
     9     4     5 ar  
    10     4    32 1   
    11     5     6 ar  
    12     5    33 1   
    13     6    14 ar  
    14     6    22 1   
    15     7    22 1   
    16     7    27 2   
    17     8     9 ar  
    18     8    21 ar  
    19     8    58 1   
    20     9    10 ar  
    21     9    29 1   
    22    10    11 1   
    23    10    24 ar  
    24    11    12 2   
    25    11    34 1   
    26    12    13 1   
    27    12    29 1   
    28    13    28 1   
    29    13    35 1   
    30    14    36 1   
    31    15    16 1   
    32    15    23 1   
    33    15    57 1   
    34    15    59 1   
    35    16    17 1   
    36    16    41 1   
    37    16    42 1   
    38    17    18 1   
    39    17    43 1   
    40    17    44 1   
    41    18    19 1   
    42    18    45 1   
    43    18    46 1   
    44    19    23 1   
    45    19    47 1   
    46    19    48 1   
    47    20    21 ar  
    48    20    24 ar  
    49    20    49 1   
    50    21    50 1   
    51    22    51 1   
    52    23    56 1   
    53    25    58 1   
    54    26    58 1   
    55    28    55 1   
    56    37    55 1   
    57    38    55 1   
    58    39    56 1   
    59    40    56 1   
    60    52    53 1   
    61    52    54 1   
    62    55    56 1   
@<TRIPOS>SUBSTRUCTURE
     1 H74         1 TEMP              0 ****  ****    0 ROOT
