@<TRIPOS>MOLECULE
H75
   30    32     1     0     0
SMALL
bcc


@<TRIPOS>ATOM
      1 O1           1.8490    -2.0880     0.4620 o          1 H75      -0.649500
      2 C2           2.1700    -0.9320     0.2230 c          1 H75       0.783500
      3 N3           3.4340    -0.4220     0.1810 n          1 H75      -0.361000
      4 C4           4.6260    -1.2470     0.2610 c6         1 H75       0.123000
      5 C5           5.8660    -0.3780     0.4040 c6         1 H75      -0.093400
      6 C6           5.8440     0.7870    -0.5790 c6         1 H75      -0.076400
      7 C7           4.6720     1.7100    -0.2530 c6         1 H75      -0.009200
      8 C8           3.4090     0.9290    -0.1360 cc         1 H75      -0.047600
      9 C9           2.1210     1.2810    -0.2690 cd         1 H75      -0.122400
     10 N10          1.3450     0.1380    -0.0540 n          1 H75      -0.274200
     11 C11         -0.0560     0.1070    -0.0280 ca         1 H75       0.086600
     12 C12         -0.7550     1.1940     0.4900 ca         1 H75      -0.141000
     13 C13         -2.1410     1.2000     0.5020 ca         1 H75      -0.086500
     14 C14         -2.8290     0.1030     0.0080 ca         1 H75      -0.031900
     15 BR          -4.7170     0.0980     0.0310 br         1 H75      -0.097100
     16 C16         -2.1470    -0.9890    -0.5050 ca         1 H75      -0.086500
     17 C17         -0.7610    -0.9840    -0.5300 ca         1 H75      -0.141000
     18 H4           4.5320    -1.9260     1.1080 h1         1 H75       0.058700
     19 H4A          4.6980    -1.8590    -0.6420 h1         1 H75       0.058700
     20 H5           5.9340     0.0090     1.4250 hc         1 H75       0.054200
     21 H5A          6.7420    -1.0080     0.2460 hc         1 H75       0.054200
     22 H6           6.7770     1.3490    -0.5230 hc         1 H75       0.050200
     23 H6A          5.7600     0.4100    -1.6030 hc         1 H75       0.050200
     24 H7           4.8780     2.2150     0.6950 hc         1 H75       0.057700
     25 H7A          4.5550     2.4900    -1.0060 hc         1 H75       0.057700
     26 H9           1.6880     2.2310    -0.5280 h4         1 H75       0.180000
     27 H12         -0.2230     2.0420     0.8990 ha         1 H75       0.151000
     28 H13         -2.6630     2.0550     0.9080 ha         1 H75       0.149500
     29 H16         -2.6780    -1.8440    -0.9010 ha         1 H75       0.149500
     30 H17         -0.2410    -1.8300    -0.9540 ha         1 H75       0.151000
@<TRIPOS>BOND
     1     1     2 2   
     2     2     3 1   
     3     2    10 1   
     4     3     4 1   
     5     3     8 1   
     6     4     5 1   
     7     4    18 1   
     8     4    19 1   
     9     5     6 1   
    10     5    20 1   
    11     5    21 1   
    12     6     7 1   
    13     6    22 1   
    14     6    23 1   
    15     7     8 1   
    16     7    24 1   
    17     7    25 1   
    18     8     9 2   
    19     9    10 1   
    20     9    26 1   
    21    10    11 1   
    22    11    12 ar  
    23    11    17 ar  
    24    12    13 ar  
    25    12    27 1   
    26    13    14 ar  
    27    13    28 1   
    28    14    15 1   
    29    14    16 ar  
    30    16    17 ar  
    31    16    29 1   
    32    17    30 1   
@<TRIPOS>SUBSTRUCTURE
     1 H75         1 TEMP              0 ****  ****    0 ROOT
