@<TRIPOS>MOLECULE
H75
   30    32     1     0     0
SMALL
No Charge or Current Charge


@<TRIPOS>ATOM
      1 O1           1.9160    -2.2110     0.6780 o          1 H75      -0.574000
      2 C2           2.2090    -1.0460     0.4410 c          1 H75       0.574000
      3 N3           3.4870    -0.5000     0.3020 n          1 H75      -0.294000
      4 C4           4.7390    -1.2800     0.3380 c6         1 H75       0.123000
      5 C5           5.9870    -0.3590     0.3080 c6         1 H75      -0.093400
      6 C6           5.8150     0.8080    -0.7010 c6         1 H75      -0.076400
      7 C7           4.6030     1.7000    -0.3200 c6         1 H75      -0.009200
      8 C8           3.3920     0.8460    -0.0310 cc         1 H75      -0.047600
      9 C9           2.0630     1.1900    -0.0840 cd         1 H75      -0.172400
     10 N10          1.3520     0.0400     0.2380 n          1 H75      -0.207200
     11 C11         -0.0750     0.1010     0.1040 ca         1 H75       0.086600
     12 C12         -0.8030     1.1840     0.6390 ca         1 H75      -0.123000
     13 C13         -2.2030     1.2340     0.5090 ca         1 H75      -0.068500
     14 C14         -2.8820     0.2000    -0.1550 ca         1 H75      -0.031900
     15 Br          -4.7850     0.2660    -0.3330 br         1 H75      -0.097100
     16 C16         -2.1660    -0.8860    -0.6860 ca         1 H75      -0.068500
     17 C17         -0.7670    -0.9350    -0.5540 ca         1 H75      -0.123000
     18 H4           4.7600    -1.9130     1.2360 h1         1 H75       0.058700
     19 H4A          4.7570    -1.9430    -0.5390 h1         1 H75       0.058700
     20 H5           6.1560     0.0540     1.3120 hc         1 H75       0.054200
     21 H5A          6.8790    -0.9500     0.0610 hc         1 H75       0.054200
     22 H6           6.7290     1.4160    -0.7360 hc         1 H75       0.050200
     23 H6A          5.6710     0.4010    -1.7110 hc         1 H75       0.050200
     24 H7           4.8550     2.3020     0.5640 hc         1 H75       0.057700
     25 H7A          4.3980     2.4120    -1.1310 hc         1 H75       0.057700
     26 H9           1.5620     2.1200    -0.3410 h4         1 H75       0.230000
     27 H12         -0.2890     1.9830     1.1690 ha         1 H75       0.133000
     28 H13         -2.7590     2.0720     0.9250 ha         1 H75       0.131500
     29 H16         -2.6920    -1.6880    -1.1990 ha         1 H75       0.131500
     30 H17         -0.2200    -1.7770    -0.9720 ha         1 H75       0.133000
@<TRIPOS>BOND
     1     1     2 2   
     2     2     3 1   
     3     2    10 1   
     4     3     4 1   
     5     3     8 1   
     6     4     5 1   
     7     4    18 1   
     8     4    19 1   
     9     5     6 1   
    10     5    20 1   
    11     5    21 1   
    12     6     7 1   
    13     6    22 1   
    14     6    23 1   
    15     7     8 1   
    16     7    24 1   
    17     7    25 1   
    18     8     9 2   
    19     9    10 1   
    20     9    26 1   
    21    10    11 1   
    22    11    12 ar  
    23    11    17 ar  
    24    12    13 ar  
    25    12    27 1   
    26    13    14 ar  
    27    13    28 1   
    28    14    15 1   
    29    14    16 ar  
    30    16    17 ar  
    31    16    29 1   
    32    17    30 1   
@<TRIPOS>SUBSTRUCTURE
     1 H75         1 TEMP              0 ****  ****    0 ROOT
