@<TRIPOS>MOLECULE
H76
   21    21     1     0     0
SMALL
No Charge or Current Charge


@<TRIPOS>ATOM
      1 CAG         -3.2370     1.0410    -0.3570 c1         1 H76      -0.233000
      2 CAF         -2.1860     0.6370     0.0870 c1         1 H76      -0.140100
      3 CAD         -0.9030     0.0990     0.5900 c5         1 H76       0.216600
      4 NAE          0.0970     1.1920     0.7550 n7         1 H76      -0.851400
      5 CAA          1.0680     0.9750    -0.3450 c5         1 H76       0.168500
      6 CAH          2.3720     1.7700    -0.1210 c3         1 H76      -0.094100
      7 CAB          1.2340    -0.5800    -0.3700 c5         1 H76       0.151300
      8 OAI          1.8770    -1.1150     0.8000 oh         1 H76      -0.661000
      9 CAC         -0.2740    -0.9660    -0.3960 c5         1 H76       0.118300
     10 OAJ         -0.4830    -2.3330     0.0070 oh         1 H76      -0.661000
     11 H1          -4.1640     1.4130    -0.7480 ha         1 H76       0.255000
     12 H2          -1.1220    -0.3540     1.5680 h1         1 H76       0.063700
     13 H3           0.6090     0.9940     1.6230 hn         1 H76       0.425000
     14 H5           0.6360     1.3140    -1.2990 h1         1 H76       0.066700
     15 H6           2.8470     1.5110     0.8320 hc         1 H76       0.045700
     16 H7           3.0930     1.5660    -0.9220 hc         1 H76       0.045700
     17 H8           2.1770     2.8490    -0.1170 hc         1 H76       0.045700
     18 H9           1.7490    -0.9150    -1.2820 h1         1 H76       0.056700
     19 H10          1.3580    -1.9290     1.0000 ho         1 H76       0.464000
     20 H11         -0.6590    -0.8140    -1.4150 h1         1 H76       0.057700
     21 H12         -1.4410    -2.5270    -0.1170 ho         1 H76       0.462000
@<TRIPOS>BOND
     1     1     2 3   
     2     1    11 1   
     3     2     3 1   
     4     3     4 1   
     5     3     9 1   
     6     3    12 1   
     7     4     5 1   
     8     4    13 1   
     9     5     6 1   
    10     5     7 1   
    11     5    14 1   
    12     6    15 1   
    13     6    16 1   
    14     6    17 1   
    15     7     8 1   
    16     7     9 1   
    17     7    18 1   
    18     8    19 1   
    19     9    10 1   
    20     9    20 1   
    21    10    21 1   
@<TRIPOS>SUBSTRUCTURE
     1 H76         1 TEMP              0 ****  ****    0 ROOT
