@<TRIPOS>MOLECULE
H76
   21    21     1     0     0
SMALL
bcc


@<TRIPOS>ATOM
      1 CAG         -3.4280     0.6990    -0.0360 c1         1 H76      -0.145500
      2 CAF         -2.2650     0.5050     0.1980 c1         1 H76      -0.140100
      3 CAD         -0.8590     0.2150     0.4670 c5         1 H76       0.216600
      4 NAE          0.0080     1.3730     0.2680 n7         1 H76      -0.796200
      5 CAA          1.2140     0.9400    -0.4580 c5         1 H76       0.168500
      6 CAH          2.4750     1.5890     0.0770 c3         1 H76      -0.094100
      7 CAB          1.1970    -0.5860    -0.4130 c5         1 H76       0.128100
      8 OAI          1.7170    -1.0280     0.8110 oh         1 H76      -0.598800
      9 CAC         -0.3000    -0.8480    -0.5020 c5         1 H76       0.095100
     10 OAJ         -0.6070    -2.1670    -0.1600 oh         1 H76      -0.598800
     11 H1          -4.4560     0.8800    -0.2460 ha         1 H76       0.167500
     12 H2          -0.7850    -0.1830     1.4860 h1         1 H76       0.063700
     13 H3           0.2530     1.7740     1.1630 hn         1 H76       0.369800
     14 H5           1.1060     1.2280    -1.5110 h1         1 H76       0.066700
     15 H6           2.6500     1.3240     1.1190 hc         1 H76       0.045700
     16 H7           3.3460     1.2770    -0.4990 hc         1 H76       0.045700
     17 H8           2.4030     2.6750     0.0040 hc         1 H76       0.045700
     18 H9           1.7380    -1.0200    -1.2660 h1         1 H76       0.056700
     19 H10          1.4360    -1.9390     0.9460 ho         1 H76       0.425000
     20 H11         -0.6370    -0.6060    -1.5210 h1         1 H76       0.057700
     21 H12         -1.5610    -2.2770    -0.1540 ho         1 H76       0.423000
@<TRIPOS>BOND
     1     1     2 3   
     2     1    11 1   
     3     2     3 1   
     4     3     4 1   
     5     3     9 1   
     6     3    12 1   
     7     4     5 1   
     8     4    13 1   
     9     5     6 1   
    10     5     7 1   
    11     5    14 1   
    12     6    15 1   
    13     6    16 1   
    14     6    17 1   
    15     7     8 1   
    16     7     9 1   
    17     7    18 1   
    18     8    19 1   
    19     9    10 1   
    20     9    20 1   
    21    10    21 1   
@<TRIPOS>SUBSTRUCTURE
     1 H76         1 TEMP              0 ****  ****    0 ROOT
