@<TRIPOS>MOLECULE
H77
   70    73     1     0     0
SMALL
No Charge or Current Charge


@<TRIPOS>ATOM
      1 C02        -21.9410    18.8910     8.1130 c          1 H77       0.707600
      2 C04        -22.7060    18.0850     7.0750 ca         1 H77      -0.069600
      3 C05        -23.4850    18.6650     6.0460 ca         1 H77      -0.186000
      4 C06        -24.1570    17.8620     5.1400 ca         1 H77       0.327800
      5 C07        -24.9140    18.6040     4.1700 cc         1 H77      -0.285800
      6 C08        -24.8070    19.9720     4.3680 cd         1 H77      -0.159600
      7 C09        -25.4570    21.0640     3.5520 c3         1 H77       0.281800
      8 C10        -26.3650    21.9760     4.3820 ca         1 H77      -0.040300
      9 C11        -25.8800    23.1620     4.9760 ca         1 H77      -0.104000
     10 C12        -26.7320    23.9690     5.7480 ca         1 H77      -0.103000
     11 C13        -28.0750    23.6030     5.9300 ca         1 H77      -0.150000
     12 C14        -28.5780    22.4370     5.3280 ca         1 H77      -0.040000
     13 C16        -30.8350    21.3620     4.7860 c          1 H77       0.609300
     14 C17        -30.7130    21.3710     3.2900 ce         1 H77      -0.257200
     15 C18        -29.9690    22.2020     2.5140 c2         1 H77      -0.167200
     16 C19        -29.9180    22.1670     1.0010 c3         1 H77       0.192000
     17 C21        -28.7970    21.1110    -0.9170 c3         1 H77       0.144600
     18 C22        -27.4630    22.3170     0.7500 c3         1 H77       0.144600
     19 C24        -27.7150    21.6180     4.5730 ca         1 H77      -0.103000
     20 C27        -22.6500    22.1810     1.2760 c3         1 H77       0.163800
     21 C29        -22.0460    23.9580    -0.3690 c6         1 H77       0.165800
     22 C30        -21.3530    24.9610     0.5950 c6         1 H77      -0.111400
     23 C31        -22.3820    25.9330     1.2220 c6         1 H77      -0.071400
     24 C32        -23.5600    25.1530     1.8560 c6         1 H77      -0.111400
     25 C33        -24.1690    24.1530     0.8370 c6         1 H77       0.165800
     26 C36        -23.3970    15.9370     6.1300 ca         1 H77       0.304900
     27 C37        -22.6810    16.6700     7.0980 ca         1 H77      -0.143000
     28 N15        -29.9260    22.0700     5.5620 ns         1 H77      -0.157000
     29 N20        -28.6850    21.5190     0.5010 n3         1 H77      -0.709600
     30 N28        -23.1460    23.2050     0.3000 n3         1 H77      -0.726600
     31 N35        -24.1330    16.5170     5.1540 nb         1 H77      -0.678000
     32 O01        -21.4290    19.9510     7.7830 o          1 H77      -0.705000
     33 O03        -21.8230    18.4150     9.2340 o          1 H77      -0.705000
     34 O23        -31.7560    20.7550     5.3190 o          1 H77      -0.608100
     35 O25        -24.4300    21.8540     2.9240 os         1 H77      -0.473000
     36 S34        -23.7660    20.4010     5.7580 ss         1 H77       0.208400
     37 H1         -25.5000    18.1490     3.3780 ha         1 H77       0.192000
     38 H2         -26.0800    20.5910     2.7800 h1         1 H77       0.058700
     39 H3         -24.8410    23.4550     4.8480 ha         1 H77       0.131000
     40 H4         -26.3480    24.8760     6.2090 ha         1 H77       0.107000
     41 H5         -28.7260    24.2300     6.5350 ha         1 H77       0.108000
     42 H6         -31.3490    20.6300     2.8100 ha         1 H77       0.201000
     43 H7         -29.3700    23.0040     2.9410 ha         1 H77       0.177000
     44 H8         -29.9980    23.1900     0.6070 h1         1 H77       0.038200
     45 H9         -30.8000    21.6190     0.6410 h1         1 H77       0.038200
     46 H10        -29.6590    20.4460    -1.0630 h1         1 H77       0.033367
     47 H11        -28.9230    21.9860    -1.5680 h1         1 H77       0.033367
     48 H12        -27.8970    20.5690    -1.2380 h1         1 H77       0.033367
     49 H13        -27.3500    22.5510     1.8150 h1         1 H77       0.033367
     50 H14        -26.5680    21.7650     0.4320 h1         1 H77       0.033367
     51 H15        -27.4940    23.2650     0.1950 h1         1 H77       0.033367
     52 H16        -28.0860    20.6940     4.1340 ha         1 H77       0.141000
     53 H17        -24.3830    20.8720     1.0600 h1         1 H77       0.043200
     54 H18        -23.1810    20.3180     2.2450 h1         1 H77       0.043200
     55 H19        -21.8990    21.5590     0.7710 h1         1 H77       0.043700
     56 H20        -22.1320    22.6600     2.1170 h1         1 H77       0.043700
     57 H21        -21.2930    23.2650    -0.7750 h1         1 H77       0.048200
     58 H22        -22.4480    24.5190    -1.2260 h1         1 H77       0.048200
     59 H23        -20.5900    25.5300     0.0470 hc         1 H77       0.044950
     60 H24        -20.8200    24.4180     1.3870 hc         1 H77       0.044950
     61 H25        -22.7660    26.6100     0.4470 hc         1 H77       0.033700
     62 H26        -21.8950    26.5640     1.9780 hc         1 H77       0.033700
     63 H27        -24.3350    25.8560     2.1900 hc         1 H77       0.044950
     64 H28        -23.2200    24.6190     2.7530 hc         1 H77       0.044950
     65 H29        -25.0060    23.6190     1.3050 h1         1 H77       0.048200
     66 H30        -24.6050    24.7300     0.0080 h1         1 H77       0.048200
     67 H31        -23.3810    14.8480     6.1390 h4         1 H77      -0.005900
     68 H32        -22.1110    16.1380     7.8540 ha         1 H77       0.136000
     69 H33        -30.2090    22.1720     6.5280 hn         1 H77       0.153000
     70 C26        -23.7070    21.2010     1.8600 c3         1 H77       0.159600
@<TRIPOS>BOND
     1     1     2 1   
     2     1    32 1   
     3     1    33 1   
     4     2     3 ar  
     5     2    27 ar  
     6     3     4 ar  
     7     3    36 1   
     8     4     5 1   
     9     4    31 ar  
    10     5     6 2   
    11     5    37 1   
    12     6     7 1   
    13     6    36 1   
    14     7     8 1   
    15     7    35 1   
    16     7    38 1   
    17     8     9 ar  
    18     8    19 ar  
    19     9    10 ar  
    20     9    39 1   
    21    10    11 ar  
    22    10    40 1   
    23    11    12 ar  
    24    11    41 1   
    25    12    19 ar  
    26    12    28 1   
    27    13    14 1   
    28    13    28 1   
    29    13    34 2   
    30    14    15 2   
    31    14    42 1   
    32    15    16 1   
    33    15    43 1   
    34    16    29 1   
    35    16    44 1   
    36    16    45 1   
    37    17    29 1   
    38    17    46 1   
    39    17    47 1   
    40    17    48 1   
    41    18    29 1   
    42    18    49 1   
    43    18    50 1   
    44    18    51 1   
    45    19    52 1   
    46    20    30 1   
    47    20    55 1   
    48    20    56 1   
    49    20    70 1   
    50    21    22 1   
    51    21    30 1   
    52    21    57 1   
    53    21    58 1   
    54    22    23 1   
    55    22    59 1   
    56    22    60 1   
    57    23    24 1   
    58    23    61 1   
    59    23    62 1   
    60    24    25 1   
    61    24    63 1   
    62    24    64 1   
    63    25    30 1   
    64    25    65 1   
    65    25    66 1   
    66    26    27 ar  
    67    26    31 ar  
    68    26    67 1   
    69    27    68 1   
    70    28    69 1   
    71    35    70 1   
    72    53    70 1   
    73    54    70 1   
@<TRIPOS>SUBSTRUCTURE
     1 H77         1 TEMP              0 ****  ****    0 ROOT
