@<TRIPOS>MOLECULE
H77
   70    73     1     0     0
SMALL
abcg2


@<TRIPOS>ATOM
      1 C02        -22.6070    18.1900     7.8030 c          1 H77       0.707600
      2 C04        -23.5280    17.6460     6.7140 ca         1 H77      -0.069600
      3 C05        -24.1080    18.4700     5.7500 ca         1 H77      -0.186000
      4 C06        -24.9520    17.9140     4.7540 ca         1 H77       0.327800
      5 C07        -25.4420    18.9110     3.8450 cc         1 H77      -0.285800
      6 C08        -24.9940    20.1530     4.1470 cd         1 H77      -0.159600
      7 C09        -25.3190    21.4270     3.4180 c3         1 H77       0.281800
      8 C10        -26.2060    22.3580     4.2250 ca         1 H77      -0.040300
      9 C11        -25.9110    23.7090     4.3770 ca         1 H77      -0.104000
     10 C12        -26.8000    24.5380     5.0550 ca         1 H77      -0.103000
     11 C13        -28.0030    24.0410     5.5380 ca         1 H77      -0.150000
     12 C14        -28.3050    22.6890     5.3720 ca         1 H77      -0.040000
     13 C16        -30.4150    21.3140     5.2830 c          1 H77       0.609300
     14 C17        -30.1900    20.8380     3.8940 ce         1 H77      -0.257200
     15 C18        -29.8350    21.6150     2.8760 c2         1 H77      -0.167200
     16 C19        -29.6230    21.1110     1.4820 c3         1 H77       0.192000
     17 C21        -27.9680    20.4280    -0.1240 c3         1 H77       0.144600
     18 C22        -27.7570    22.5710     0.9310 c3         1 H77       0.144600
     19 C24        -27.3840    21.8460     4.7600 ca         1 H77      -0.103000
     20 C27        -22.3990    22.4590     1.4100 c3         1 H77       0.163800
     21 C29        -21.8630    24.0960    -0.3100 c6         1 H77       0.165800
     22 C30        -21.1830    25.1980     0.5130 c6         1 H77      -0.111400
     23 C31        -22.2240    26.1870     1.0470 c6         1 H77      -0.071400
     24 C32        -23.3440    25.4480     1.7850 c6         1 H77      -0.111400
     25 C33        -23.9290    24.3400     0.9030 c6         1 H77       0.165800
     26 C36        -24.6810    15.8240     5.6170 ca         1 H77       0.304900
     27 C37        -23.8380    16.2940     6.6260 ca         1 H77      -0.143000
     28 N15        -29.5500    22.2070     5.8450 ns         1 H77      -0.157000
     29 N20        -28.2090    21.1940     1.0910 n3         1 H77      -0.709600
     30 N28        -22.9280    23.3840     0.4060 n3         1 H77      -0.726600
     31 N35        -25.2350    16.6030     4.6900 nb         1 H77      -0.678000
     32 O01        -22.4040    19.4300     7.7740 o          1 H77      -0.705000
     33 O03        -22.1370    17.3660     8.6210 o          1 H77      -0.705000
     34 O23        -31.3940    20.9170     5.9190 o          1 H77      -0.608100
     35 O25        -24.1500    22.1260     3.0300 os         1 H77      -0.473000
     36 S34        -23.9440    20.1890     5.5500 ss         1 H77       0.208400
     37 H1         -26.0970    18.6930     3.0130 ha         1 H77       0.192000
     38 H2         -25.8840    21.1410     2.5210 h1         1 H77       0.058700
     39 H3         -24.9970    24.1090     3.9650 ha         1 H77       0.131000
     40 H4         -26.5660    25.5870     5.1840 ha         1 H77       0.107000
     41 H5         -28.7160    24.6930     6.0270 ha         1 H77       0.108000
     42 H6         -30.4150    19.7880     3.7420 ha         1 H77       0.201000
     43 H7         -29.6490    22.6690     3.0480 ha         1 H77       0.177000
     44 H8         -30.2560    21.6790     0.7760 h1         1 H77       0.038200
     45 H9         -29.9250    20.0650     1.4270 h1         1 H77       0.038200
     46 H10        -28.2590    19.3880     0.0290 h1         1 H77       0.033367
     47 H11        -28.5290    20.8210    -0.9890 h1         1 H77       0.033367
     48 H12        -26.9040    20.4600    -0.3670 h1         1 H77       0.033367
     49 H13        -27.8380    23.1140     1.8710 h1         1 H77       0.033367
     50 H14        -26.7090    22.5730     0.6340 h1         1 H77       0.033367
     51 H15        -28.3360    23.1120     0.1640 h1         1 H77       0.033367
     52 H16        -27.6010    20.7930     4.6630 ha         1 H77       0.141000
     53 H17        -24.1300    21.1950     1.1800 h1         1 H77       0.043200
     54 H18        -22.9320    20.5990     2.3470 h1         1 H77       0.043200
     55 H19        -21.6300    21.8640     0.9130 h1         1 H77       0.043700
     56 H20        -21.9090    22.9580     2.2590 h1         1 H77       0.043700
     57 H21        -21.1290    23.3640    -0.6530 h1         1 H77       0.048200
     58 H22        -22.3130    24.5500    -1.2000 h1         1 H77       0.048200
     59 H23        -20.4460    25.7120    -0.1100 hc         1 H77       0.044950
     60 H24        -20.6370    24.7510     1.3490 hc         1 H77       0.044950
     61 H25        -22.6570    26.7380     0.2040 hc         1 H77       0.033700
     62 H26        -21.7520    26.9260     1.7000 hc         1 H77       0.033700
     63 H27        -24.1400    26.1410     2.0700 hc         1 H77       0.044950
     64 H28        -22.9540    25.0160     2.7120 hc         1 H77       0.044950
     65 H29        -24.7030    23.7940     1.4350 h1         1 H77       0.048200
     66 H30        -24.3960    24.7980     0.0250 h1         1 H77       0.048200
     67 H31        -24.9150    14.7660     5.5600 h4         1 H77      -0.005900
     68 H32        -23.4190    15.6090     7.3490 ha         1 H77       0.136000
     69 H33        -29.8790    22.5940     6.7200 hn         1 H77       0.153000
     70 C26        -23.4300    21.4980     1.9680 c3         1 H77       0.159600
@<TRIPOS>BOND
     1     1     2 1   
     2     1    32 1   
     3     1    33 1   
     4     2     3 ar  
     5     2    27 ar  
     6     3     4 ar  
     7     3    36 1   
     8     4     5 1   
     9     4    31 ar  
    10     5     6 2   
    11     5    37 1   
    12     6     7 1   
    13     6    36 1   
    14     7     8 1   
    15     7    35 1   
    16     7    38 1   
    17     8     9 ar  
    18     8    19 ar  
    19     9    10 ar  
    20     9    39 1   
    21    10    11 ar  
    22    10    40 1   
    23    11    12 ar  
    24    11    41 1   
    25    12    19 ar  
    26    12    28 1   
    27    13    14 1   
    28    13    28 1   
    29    13    34 2   
    30    14    15 2   
    31    14    42 1   
    32    15    16 1   
    33    15    43 1   
    34    16    29 1   
    35    16    44 1   
    36    16    45 1   
    37    17    29 1   
    38    17    46 1   
    39    17    47 1   
    40    17    48 1   
    41    18    29 1   
    42    18    49 1   
    43    18    50 1   
    44    18    51 1   
    45    19    52 1   
    46    20    30 1   
    47    20    55 1   
    48    20    56 1   
    49    20    70 1   
    50    21    22 1   
    51    21    30 1   
    52    21    57 1   
    53    21    58 1   
    54    22    23 1   
    55    22    59 1   
    56    22    60 1   
    57    23    24 1   
    58    23    61 1   
    59    23    62 1   
    60    24    25 1   
    61    24    63 1   
    62    24    64 1   
    63    25    30 1   
    64    25    65 1   
    65    25    66 1   
    66    26    27 ar  
    67    26    31 ar  
    68    26    67 1   
    69    27    68 1   
    70    28    69 1   
    71    35    70 1   
    72    53    70 1   
    73    54    70 1   
@<TRIPOS>SUBSTRUCTURE
     1 H77         1 TEMP              0 ****  ****    0 ROOT
