@<TRIPOS>MOLECULE
H7B
   67    71     1     0     0
SMALL
No Charge or Current Charge


@<TRIPOS>ATOM
      1 C4          31.8320    15.0420    -2.3830 c3         1 H7B       0.109200
      2 C14         29.6650    16.0410    -2.7610 ce         1 H7B       0.530500
      3 C5          33.0300    14.6340    -3.2750 c3         1 H7B      -0.132400
      4 C6          32.9050    13.2710    -3.9770 c          1 H7B       0.608100
      5 C7          33.6460    11.7210    -5.8460 c6         1 H7B       0.097500
      6 C8          34.8190    10.7650    -5.5330 c6         1 H7B      -0.112400
      7 C9          36.1770    11.4600    -5.8170 c6         1 H7B       0.185500
      8 C12         36.2640    12.7920    -5.0170 c6         1 H7B      -0.112400
      9 C13         35.0490    13.6980    -5.3260 c6         1 H7B       0.097500
     10 N1          32.6500    18.2630    -0.8760 nc         1 H7B      -0.361000
     11 N2          32.9280    17.2320    -1.7660 nc         1 H7B      -0.349000
     12 C3          32.1370    16.2070    -1.4570 cd         1 H7B       0.386800
     13 N3          33.7690    12.9810    -5.0640 n          1 H7B      -0.410800
     14 C1          30.9840    18.7320     0.9270 c3         1 H7B      -0.123400
     15 C2          31.6650    17.8530    -0.0880 cd         1 H7B       0.412800
     16 N4          37.3440    10.5470    -5.6000 n3         1 H7B      -0.726600
     17 O1          32.0720    12.4490    -3.6140 o          1 H7B      -0.621100
     18 N5          30.6840    15.3910    -3.2400 n2         1 H7B      -0.558900
     19 C15         28.7970    16.8590    -3.6760 ca         1 H7B      -0.138900
     20 C16         27.9670    17.8790    -3.1540 ca         1 H7B      -0.067500
     21 C17         27.1820    18.6710    -4.0100 ca         1 H7B      -0.111000
     22 C18         27.2270    18.4650    -5.3970 ca         1 H7B       0.135000
     23 Cl1         26.2450    19.4580    -6.4650 cl         1 H7B      -0.209000
     24 C19         28.0620    17.4730    -5.9310 ca         1 H7B      -0.111000
     25 C20         28.8490    16.6790    -5.0790 ca         1 H7B      -0.067500
     26 C21         29.2360    15.8620    -1.3300 ca         1 H7B      -0.143900
     27 C22         30.1030    16.0610    -0.2170 ca         1 H7B      -0.021200
     28 C23         29.6280    15.7920     1.0830 ca         1 H7B      -0.079000
     29 C24         28.3120    15.3550     1.2990 ca         1 H7B      -0.173000
     30 C25         27.4470    15.1690     0.2050 ca         1 H7B       0.141100
     31 O2          26.1440    14.7370     0.3500 os         1 H7B      -0.341100
     32 C26         25.5680    14.4540     1.6380 c3         1 H7B       0.147900
     33 C27         27.9160    15.4150    -1.0930 ca         1 H7B      -0.104000
     34 N6          31.4240    16.5240    -0.3310 na         1 H7B      -0.285800
     35 H1          31.5810    14.1870    -1.7390 h1         1 H7B       0.088700
     36 H3          33.9560    14.5960    -2.6900 hc         1 H7B       0.082700
     37 H4          33.2530    15.4060    -4.0200 hc         1 H7B       0.082700
     38 H5          39.3840    10.2790    -6.1570 h1         1 H7B       0.030867
     39 H6          38.4670    11.3580    -7.2250 h1         1 H7B       0.030867
     40 H7          38.9830    11.9230    -5.6170 h1         1 H7B       0.030867
     41 H9          32.6920    11.2170    -5.6380 h1         1 H7B       0.058700
     42 H10         34.7270     9.8550    -6.1400 hc         1 H7B       0.054700
     43 H11         34.7470    10.4580    -4.4820 hc         1 H7B       0.054700
     44 H12         36.1620    11.7330    -6.8840 h1         1 H7B       0.052700
     45 H13         36.6290     9.5310    -3.8470 h1         1 H7B       0.030867
     46 H14         38.3520     9.3230    -4.1750 h1         1 H7B       0.030867
     47 H15         37.7660    10.8640    -3.5230 h1         1 H7B       0.030867
     48 H16         36.2930    12.5900    -3.9380 hc         1 H7B       0.054700
     49 H17         37.1860    13.3330    -5.2640 hc         1 H7B       0.054700
     50 H18         35.1380    14.6190    -4.7360 h1         1 H7B       0.058700
     51 H19         35.0780    13.9950    -6.3840 h1         1 H7B       0.058700
     52 H20         31.3860    19.7510     0.9020 hc         1 H7B       0.061367
     53 H21         29.9070    18.7920     0.7320 hc         1 H7B       0.061367
     54 H22         31.1260    18.3390     1.9400 hc         1 H7B       0.061367
     55 H26         27.9300    18.0700    -2.0830 ha         1 H7B       0.131000
     56 H27         26.5430    19.4480    -3.5990 ha         1 H7B       0.132500
     57 H28         28.1020    17.3210    -7.0070 ha         1 H7B       0.132500
     58 H29         29.4930    15.9180    -5.5160 ha         1 H7B       0.131000
     59 H30         30.2860    15.9260     1.9390 ha         1 H7B       0.128000
     60 H31         27.9860    15.1650     2.3180 ha         1 H7B       0.126000
     61 H32         24.5260    14.1290     1.5260 h1         1 H7B       0.046700
     62 H33         26.1200    13.6530     2.1460 h1         1 H7B       0.046700
     63 H34         25.5770    15.3480     2.2750 h1         1 H7B       0.046700
     64 H35         27.2430    15.2440    -1.9300 ha         1 H7B       0.147000
     65 H8          33.6500    11.9660    -6.9180 h1         1 H7B       0.058700
     66 C11         38.6090    11.0560    -6.1790 c3         1 H7B       0.155100
     67 C10         37.5270    10.0450    -4.2140 c3         1 H7B       0.155100
@<TRIPOS>BOND
     1     1     3 1   
     2     1    12 1   
     3     1    18 1   
     4     1    35 1   
     5     2    18 2   
     6     2    19 1   
     7     2    26 1   
     8     3     4 1   
     9     3    36 1   
    10     3    37 1   
    11     4    13 1   
    12     4    17 2   
    13     5     6 1   
    14     5    13 1   
    15     5    41 1   
    16     5    65 1   
    17     6     7 1   
    18     6    42 1   
    19     6    43 1   
    20     7     8 1   
    21     7    16 1   
    22     7    44 1   
    23     8     9 1   
    24     8    48 1   
    25     8    49 1   
    26     9    13 1   
    27     9    50 1   
    28     9    51 1   
    29    10    11 1   
    30    10    15 2   
    31    11    12 2   
    32    12    34 1   
    33    14    15 1   
    34    14    52 1   
    35    14    53 1   
    36    14    54 1   
    37    15    34 1   
    38    16    66 1   
    39    16    67 1   
    40    19    20 ar  
    41    19    25 ar  
    42    20    21 ar  
    43    20    55 1   
    44    21    22 ar  
    45    21    56 1   
    46    22    23 1   
    47    22    24 ar  
    48    24    25 ar  
    49    24    57 1   
    50    25    58 1   
    51    26    27 ar  
    52    26    33 ar  
    53    27    28 ar  
    54    27    34 1   
    55    28    29 ar  
    56    28    59 1   
    57    29    30 ar  
    58    29    60 1   
    59    30    31 1   
    60    30    33 ar  
    61    31    32 1   
    62    32    61 1   
    63    32    62 1   
    64    32    63 1   
    65    33    64 1   
    66    38    66 1   
    67    39    66 1   
    68    40    66 1   
    69    45    67 1   
    70    46    67 1   
    71    47    67 1   
@<TRIPOS>SUBSTRUCTURE
     1 H7B         1 TEMP              0 ****  ****    0 ROOT
