@<TRIPOS>MOLECULE
H7B
   67    71     1     0     0
SMALL
abcg2


@<TRIPOS>ATOM
      1 C4          31.9920    15.3660    -2.4230 c3         1 H7B       0.109200
      2 C14         29.8140    16.2010    -2.8590 ce         1 H7B       0.530500
      3 C5          33.1850    14.8990    -3.2370 c3         1 H7B      -0.132400
      4 C6          32.8430    13.6700    -4.0700 c          1 H7B       0.608100
      5 C7          33.5000    12.0910    -5.8140 c6         1 H7B       0.097500
      6 C8          34.5410    11.0230    -5.4830 c6         1 H7B      -0.112400
      7 C9          35.9580    11.5650    -5.6810 c6         1 H7B       0.185500
      8 C12         36.1400    12.8570    -4.8680 c6         1 H7B      -0.112400
      9 C13         35.0560    13.8770    -5.2170 c6         1 H7B       0.097500
     10 N1          33.2300    18.0470    -0.2980 nc         1 H7B      -0.361000
     11 N2          33.4400    17.1310    -1.3200 nc         1 H7B      -0.349000
     12 C3          32.3580    16.4130    -1.4250 cd         1 H7B       0.386800
     13 N3          33.7280    13.2980    -5.0220 n          1 H7B      -0.410800
     14 C1          31.3910    18.6550     1.2600 c3         1 H7B      -0.123400
     15 C2          32.0240    17.8580     0.1800 cd         1 H7B       0.412800
     16 N4          36.9750    10.5270    -5.4570 n3         1 H7B      -0.726600
     17 O1          31.7980    13.0440    -3.8630 o          1 H7B      -0.621100
     18 N5          30.9840    15.9590    -3.3110 n2         1 H7B      -0.558900
     19 C15         28.8200    16.7850    -3.7980 ca         1 H7B      -0.138900
     20 C16         27.8680    17.7070    -3.3590 ca         1 H7B      -0.067500
     21 C17         26.9720    18.2830    -4.2490 ca         1 H7B      -0.111000
     22 C18         27.0230    17.9150    -5.5870 ca         1 H7B       0.135000
     23 CL1         25.8860    18.6210    -6.7130 cl         1 H7B      -0.209000
     24 C19         27.9540    16.9930    -6.0490 ca         1 H7B      -0.111000
     25 C20         28.8530    16.4380    -5.1510 ca         1 H7B      -0.067500
     26 C21         29.3620    15.9270    -1.4650 ca         1 H7B      -0.143900
     27 C22         30.1460    16.2340    -0.3380 ca         1 H7B      -0.021200
     28 C23         29.6730    15.9440     0.9340 ca         1 H7B      -0.079000
     29 C24         28.4280    15.3600     1.1190 ca         1 H7B      -0.173000
     30 C25         27.6430    15.0470     0.0080 ca         1 H7B       0.141100
     31 O2          26.4210    14.4660     0.0730 os         1 H7B      -0.341100
     32 C26         25.8920    14.1400     1.3610 c3         1 H7B       0.147900
     33 C27         28.1170    15.3380    -1.2700 ca         1 H7B      -0.104000
     34 N6          31.4260    16.8230    -0.5030 na         1 H7B      -0.285800
     35 H1          31.5620    14.5140    -1.8870 h1         1 H7B       0.088700
     36 H3          34.0140    14.6470    -2.5700 hc         1 H7B       0.082700
     37 H4          33.5240    15.7160    -3.8710 hc         1 H7B       0.082700
     38 H5          38.9290    10.0070    -5.9860 h1         1 H7B       0.030867
     39 H6          38.1420    11.1560    -7.0800 h1         1 H7B       0.030867
     40 H7          38.7710    11.7040    -5.5110 h1         1 H7B       0.030867
     41 H9          32.4940    11.7350    -5.6150 h1         1 H7B       0.058700
     42 H10         34.3900    10.1530    -6.1260 hc         1 H7B       0.054700
     43 H11         34.3940    10.7020    -4.4490 hc         1 H7B       0.054700
     44 H12         36.0500    11.8340    -6.7390 h1         1 H7B       0.052700
     45 H13         36.1610     9.8320    -3.6440 h1         1 H7B       0.030867
     46 H14         37.7640     9.2130    -4.0420 h1         1 H7B       0.030867
     47 H15         37.5880    10.8630    -3.4280 h1         1 H7B       0.030867
     48 H16         36.0830    12.6390    -3.7980 hc         1 H7B       0.054700
     49 H17         37.1170    13.3020    -5.0640 hc         1 H7B       0.054700
     50 H18         35.1690    14.7720    -4.6170 h1         1 H7B       0.058700
     51 H19         35.1450    14.1710    -6.2680 h1         1 H7B       0.058700
     52 H20         31.9510    19.5790     1.3860 hc         1 H7B       0.061367
     53 H21         30.3560    18.8940     1.0110 hc         1 H7B       0.061367
     54 H22         31.3920    18.1190     2.2100 hc         1 H7B       0.061367
     55 H26         27.8290    17.9910    -2.3160 ha         1 H7B       0.131000
     56 H27         26.2440    19.0050    -3.9090 ha         1 H7B       0.132500
     57 H28         27.9720    16.7120    -7.0930 ha         1 H7B       0.132500
     58 H29         29.5830    15.7180    -5.4940 ha         1 H7B       0.131000
     59 H30         30.2880    16.1590     1.7960 ha         1 H7B       0.128000
     60 H31         28.0930    15.1450     2.1220 ha         1 H7B       0.126000
     61 H32         24.9220    13.6880     1.1760 h1         1 H7B       0.046700
     62 H33         26.5390    13.4290     1.8780 h1         1 H7B       0.046700
     63 H34         25.7710    15.0380     1.9710 h1         1 H7B       0.046700
     64 H35         27.4960    15.0940    -2.1200 ha         1 H7B       0.147000
     65 H8          33.5690    12.3650    -6.8720 h1         1 H7B       0.058700
     66 C11         38.2670    10.8740    -6.0320 c3         1 H7B       0.155100
     67 C10         37.1270    10.0990    -4.0720 c3         1 H7B       0.155100
@<TRIPOS>BOND
     1     1     3 1   
     2     1    12 1   
     3     1    18 1   
     4     1    35 1   
     5     2    18 2   
     6     2    19 1   
     7     2    26 1   
     8     3     4 1   
     9     3    36 1   
    10     3    37 1   
    11     4    13 1   
    12     4    17 2   
    13     5     6 1   
    14     5    13 1   
    15     5    41 1   
    16     5    65 1   
    17     6     7 1   
    18     6    42 1   
    19     6    43 1   
    20     7     8 1   
    21     7    16 1   
    22     7    44 1   
    23     8     9 1   
    24     8    48 1   
    25     8    49 1   
    26     9    13 1   
    27     9    50 1   
    28     9    51 1   
    29    10    11 1   
    30    10    15 2   
    31    11    12 2   
    32    12    34 1   
    33    14    15 1   
    34    14    52 1   
    35    14    53 1   
    36    14    54 1   
    37    15    34 1   
    38    16    66 1   
    39    16    67 1   
    40    19    20 ar  
    41    19    25 ar  
    42    20    21 ar  
    43    20    55 1   
    44    21    22 ar  
    45    21    56 1   
    46    22    23 1   
    47    22    24 ar  
    48    24    25 ar  
    49    24    57 1   
    50    25    58 1   
    51    26    27 ar  
    52    26    33 ar  
    53    27    28 ar  
    54    27    34 1   
    55    28    29 ar  
    56    28    59 1   
    57    29    30 ar  
    58    29    60 1   
    59    30    31 1   
    60    30    33 ar  
    61    31    32 1   
    62    32    61 1   
    63    32    62 1   
    64    32    63 1   
    65    33    64 1   
    66    38    66 1   
    67    39    66 1   
    68    40    66 1   
    69    45    67 1   
    70    46    67 1   
    71    47    67 1   
@<TRIPOS>SUBSTRUCTURE
     1 H7B         1 TEMP              0 ****  ****    0 ROOT
