@<TRIPOS>MOLECULE
H7C
   47    50     1     0     0
SMALL
No Charge or Current Charge


@<TRIPOS>ATOM
      1 C10         83.0500   140.5360    15.2160 ca         1 H7C      -0.223000
      2 C11         81.1120   143.7600    18.4320 ca         1 H7C      -0.223000
      3 C12         81.0230   145.0920    18.8850 ca         1 H7C       0.158100
      4 C13         81.7360   146.0960    18.2190 ca         1 H7C      -0.123000
      5 C14         82.5350   145.7790    17.1100 ca         1 H7C      -0.053000
      6 C16         79.4750   140.7180    16.6230 c6         1 H7C       0.084300
      7 C19         79.4610   144.5140    20.7100 c3         1 H7C       0.144900
      8 C21         78.6460   142.0310    16.7110 c6         1 H7C      -0.108400
      9 C22         77.4940   142.0970    15.6710 c6         1 H7C       0.152300
     10 C24         78.3060   140.1290    14.4100 c6         1 H7C       0.152300
     11 C25         79.6650   140.3170    15.1410 c6         1 H7C      -0.108400
     12 C01         81.9990   142.1010    16.8220 ca         1 H7C      -0.098000
     13 C02         81.9090   143.4320    17.3060 ca         1 H7C       0.011500
     14 C03         82.6360   144.4560    16.6400 ca         1 H7C       0.239000
     15 C05         83.5440   142.9360    15.1190 ca         1 H7C       0.239000
     16 C06         82.8580   141.8460    15.7200 ca         1 H7C       0.011500
     17 C07         84.3820   142.6880    14.0150 ca         1 H7C      -0.053000
     18 C08         84.5520   141.3890    13.5110 ca         1 H7C      -0.123000
     19 C09         83.8910   140.3090    14.1080 ca         1 H7C       0.158100
     20 C20         83.4520   137.8780    14.0950 c3         1 H7C       0.144900
     21 N04         83.4240   144.2040    15.5710 nb         1 H7C      -0.624000
     22 N23         77.1630   140.7610    15.1240 n7         1 H7C      -0.848400
     23 O18         80.2520   145.4600    19.9690 os         1 H7C      -0.336100
     24 S15         81.0590   140.7670    17.5970 ss         1 H7C      -0.233000
     25 H1          82.5520   139.6980    15.6860 ha         1 H7C       0.139500
     26 H2          80.5640   142.9830    18.9510 ha         1 H7C       0.139500
     27 H3          81.6700   147.1240    18.5650 ha         1 H7C       0.133000
     28 H4          83.0860   146.5680    16.6050 ha         1 H7C       0.135000
     29 H5          78.8830   139.9220    17.0970 h1         1 H7C       0.072700
     30 H6          78.9250   145.0200    21.5220 h1         1 H7C       0.044533
     31 H7          78.7190   144.0320    20.0610 h1         1 H7C       0.044533
     32 H8          80.0970   143.7380    21.1550 h1         1 H7C       0.044533
     33 H9          79.2920   142.9020    16.5490 hc         1 H7C       0.055200
     34 H10         78.2390   142.1340    17.7260 hc         1 H7C       0.055200
     35 H11         77.7950   142.7560    14.8410 h1         1 H7C       0.052700
     36 H12         76.6030   142.5480    16.1340 h1         1 H7C       0.052700
     37 H13         78.0980   139.0550    14.2890 h1         1 H7C       0.052700
     38 H14         78.3880   140.5550    13.3980 h1         1 H7C       0.052700
     39 H15         80.2480   139.3900    15.0670 hc         1 H7C       0.055200
     40 H16         80.2460   141.0940    14.6250 hc         1 H7C       0.055200
     41 H17         84.9060   143.5160    13.5470 ha         1 H7C       0.135000
     42 H18         85.2030   141.2190    12.6580 ha         1 H7C       0.133000
     43 H19         83.7530   136.9930    13.5210 h1         1 H7C       0.044533
     44 H20         83.7290   137.7110    15.1440 h1         1 H7C       0.044533
     45 H21         82.3610   137.9710    14.0280 h1         1 H7C       0.044533
     46 H22         76.8960   140.1580    15.9110 hn         1 H7C       0.405000
     47 O17         84.1000   139.0530    13.5750 os         1 H7C      -0.336100
@<TRIPOS>BOND
     1     1    16 ar  
     2     1    19 ar  
     3     1    25 1   
     4     2     3 ar  
     5     2    13 ar  
     6     2    26 1   
     7     3     4 ar  
     8     3    23 1   
     9     4     5 ar  
    10     4    27 1   
    11     5    14 ar  
    12     5    28 1   
    13     6     8 1   
    14     6    11 1   
    15     6    24 1   
    16     6    29 1   
    17     7    23 1   
    18     7    30 1   
    19     7    31 1   
    20     7    32 1   
    21     8     9 1   
    22     8    33 1   
    23     8    34 1   
    24     9    22 1   
    25     9    35 1   
    26     9    36 1   
    27    10    11 1   
    28    10    22 1   
    29    10    37 1   
    30    10    38 1   
    31    11    39 1   
    32    11    40 1   
    33    12    13 ar  
    34    12    16 ar  
    35    12    24 1   
    36    13    14 ar  
    37    14    21 ar  
    38    15    16 ar  
    39    15    17 ar  
    40    15    21 ar  
    41    17    18 ar  
    42    17    41 1   
    43    18    19 ar  
    44    18    42 1   
    45    19    47 1   
    46    20    43 1   
    47    20    44 1   
    48    20    45 1   
    49    20    47 1   
    50    22    46 1   
@<TRIPOS>SUBSTRUCTURE
     1 H7C         1 TEMP              0 ****  ****    0 ROOT
