@<TRIPOS>MOLECULE
H7C
   47    50     1     0     0
SMALL
abcg2


@<TRIPOS>ATOM
      1 C10         83.0270   140.5260    15.1840 ca         1 H7C      -0.223000
      2 C11         81.0690   143.7410    18.4380 ca         1 H7C      -0.223000
      3 C12         81.0270   145.0330    18.8820 ca         1 H7C       0.158100
      4 C13         81.7840   146.0500    18.2270 ca         1 H7C      -0.123000
      5 C14         82.5640   145.7410    17.1640 ca         1 H7C      -0.053000
      6 C16         79.4490   140.7380    16.5930 c6         1 H7C       0.084300
      7 C19         79.5100   144.5240    20.6250 c3         1 H7C       0.144900
      8 C21         78.6620   142.0440    16.6800 c6         1 H7C      -0.108400
      9 C22         77.5580   142.0770    15.6010 c6         1 H7C       0.152300
     10 C24         78.2040   140.0170    14.5490 c6         1 H7C       0.152300
     11 C25         79.6010   140.3060    15.1440 c6         1 H7C      -0.108400
     12 C01         81.9470   142.0850    16.7980 ca         1 H7C      -0.098000
     13 C02         81.8700   143.3880    17.3180 ca         1 H7C       0.011500
     14 C03         82.6440   144.4050    16.6730 ca         1 H7C       0.239000
     15 C05         83.5400   142.9270    15.1750 ca         1 H7C       0.239000
     16 C06         82.8200   141.8220    15.7290 ca         1 H7C       0.011500
     17 C07         84.4150   142.6920    14.0740 ca         1 H7C      -0.053000
     18 C08         84.5830   141.4470    13.5670 ca         1 H7C      -0.123000
     19 C09         83.8830   140.3410    14.1350 ca         1 H7C       0.158100
     20 C20         83.4860   138.0100    14.0510 c3         1 H7C       0.144900
     21 N04         83.4350   144.1670    15.6340 nb         1 H7C      -0.624000
     22 N23         77.1180   140.7630    15.1730 n7         1 H7C      -0.848400
     23 O18         80.3060   145.4620    19.9280 os         1 H7C      -0.336100
     24 S15         81.0190   140.7690    17.5440 ss         1 H7C      -0.233000
     25 H1          82.4970   139.6970    15.6300 ha         1 H7C       0.139500
     26 H2          80.5020   142.9600    18.9220 ha         1 H7C       0.139500
     27 H3          81.7270   147.0660    18.5980 ha         1 H7C       0.133000
     28 H4          83.1460   146.5030    16.6620 ha         1 H7C       0.135000
     29 H5          78.9090   139.9540    17.1350 h1         1 H7C       0.072700
     30 H6          79.0120   145.0710    21.4210 h1         1 H7C       0.044533
     31 H7          78.7540   144.0740    19.9760 h1         1 H7C       0.044533
     32 H8          80.1150   143.7270    21.0650 h1         1 H7C       0.044533
     33 H9          79.3230   142.8990    16.5340 hc         1 H7C       0.055200
     34 H10         78.2340   142.1430    17.6800 hc         1 H7C       0.055200
     35 H11         77.9240   142.6060    14.7170 h1         1 H7C       0.052700
     36 H12         76.7010   142.6480    15.9640 h1         1 H7C       0.052700
     37 H13         77.9770   138.9540    14.6450 h1         1 H7C       0.052700
     38 H14         78.2250   140.2360    13.4780 h1         1 H7C       0.052700
     39 H15         80.2260   139.4160    15.0620 hc         1 H7C       0.055200
     40 H16         80.1040   141.0970    14.5830 hc         1 H7C       0.055200
     41 H17         84.9470   143.5380    13.6570 ha         1 H7C       0.135000
     42 H18         85.2510   141.2730    12.7330 ha         1 H7C       0.133000
     43 H19         83.8250   137.1750    13.4430 h1         1 H7C       0.044533
     44 H20         83.7420   137.8160    15.0960 h1         1 H7C       0.044533
     45 H21         82.4000   138.0960    13.9630 h1         1 H7C       0.044533
     46 H22         76.7690   140.2500    15.9730 hn         1 H7C       0.405000
     47 O17         84.1440   139.1610    13.5560 os         1 H7C      -0.336100
@<TRIPOS>BOND
     1     1    16 ar  
     2     1    19 ar  
     3     1    25 1   
     4     2     3 ar  
     5     2    13 ar  
     6     2    26 1   
     7     3     4 ar  
     8     3    23 1   
     9     4     5 ar  
    10     4    27 1   
    11     5    14 ar  
    12     5    28 1   
    13     6     8 1   
    14     6    11 1   
    15     6    24 1   
    16     6    29 1   
    17     7    23 1   
    18     7    30 1   
    19     7    31 1   
    20     7    32 1   
    21     8     9 1   
    22     8    33 1   
    23     8    34 1   
    24     9    22 1   
    25     9    35 1   
    26     9    36 1   
    27    10    11 1   
    28    10    22 1   
    29    10    37 1   
    30    10    38 1   
    31    11    39 1   
    32    11    40 1   
    33    12    13 ar  
    34    12    16 ar  
    35    12    24 1   
    36    13    14 ar  
    37    14    21 ar  
    38    15    16 ar  
    39    15    17 ar  
    40    15    21 ar  
    41    17    18 ar  
    42    17    41 1   
    43    18    19 ar  
    44    18    42 1   
    45    19    47 1   
    46    20    43 1   
    47    20    44 1   
    48    20    45 1   
    49    20    47 1   
    50    22    46 1   
@<TRIPOS>SUBSTRUCTURE
     1 H7C         1 TEMP              0 ****  ****    0 ROOT
