@<TRIPOS>MOLECULE
H7D
   43    44     1     0     0
SMALL
No Charge or Current Charge


@<TRIPOS>ATOM
      1 N           19.9120     6.2860   -24.6900 n7         1 H7D      -0.952300
      2 C           17.7650     6.5690   -22.8210 c          1 H7D       0.713000
      3 O           16.6260     6.5550   -23.2610 o          1 H7D      -0.721000
      4 C1          18.6960     7.7590   -23.1320 c3         1 H7D      -0.205700
      5 C10         22.4870     5.6300   -28.1510 c5         1 H7D      -0.091400
      6 C11         22.8990     7.1110   -27.8800 c5         1 H7D      -0.091400
      7 C12         22.2070     7.4470   -26.5330 c5         1 H7D       0.233300
      8 C2          18.0290     9.1200   -22.7720 c3         1 H7D      -0.053400
      9 C3          18.7900    10.3810   -23.2530 c3         1 H7D      -0.075400
     10 C4          18.1100    11.1620   -24.4040 c3         1 H7D      -0.063400
     11 C5          17.4660    10.3510   -25.5610 c3         1 H7D      -0.067400
     12 C6          18.3710     9.3420   -26.3080 c3         1 H7D      -0.063400
     13 C7          18.3850     7.8870   -25.7630 c3         1 H7D      -0.075400
     14 C8          19.3230     7.6250   -24.5530 c3         1 H7D       0.251500
     15 C9          21.5860     5.2730   -26.9400 c5         1 H7D       0.233300
     16 N1          22.1560     6.1270   -25.8850 n3         1 H7D      -0.814500
     17 O1          18.2450     5.6520   -22.1730 o          1 H7D      -0.721000
     18 O2          21.6000     4.6420   -23.8720 o          1 H7D      -0.591500
     19 O3          21.9960     7.1300   -23.5070 o          1 H7D      -0.591500
     20 S           21.4940     6.0260   -24.3230 s6         1 H7D       1.334200
     21 H1          19.5570     5.7260   -23.9150 hn         1 H7D       0.565000
     22 H3          19.5600     7.6540   -22.4640 hc         1 H7D       0.045700
     23 H6          23.9880     7.2020   -27.7940 hc         1 H7D       0.044700
     24 H7          22.5790     7.7890   -28.6790 hc         1 H7D       0.044700
     25 H8          22.7780     8.1850   -25.9530 h1         1 H7D       0.054200
     26 H9          21.2010     7.8560   -26.7040 h1         1 H7D       0.054200
     27 H10         17.9460     9.1660   -21.6790 hc         1 H7D       0.048700
     28 H11         16.9950     9.1470   -23.1310 hc         1 H7D       0.048700
     29 H12         19.8220    10.1370   -23.5280 hc         1 H7D       0.027700
     30 H13         18.8850    11.0680   -22.4030 hc         1 H7D       0.027700
     31 H14         18.8460    11.8560   -24.8280 hc         1 H7D       0.017700
     32 H15         17.3230    11.7900   -23.9680 hc         1 H7D       0.017700
     33 H16         17.1140    11.0830   -26.2980 hc         1 H7D       0.032200
     34 H17         16.5590     9.8430   -25.2130 hc         1 H7D       0.032200
     35 H18         19.3930     9.7330   -26.3770 hc         1 H7D       0.018700
     36 H19         18.0050     9.2890   -27.3400 hc         1 H7D       0.018700
     37 H20         17.3640     7.5570   -25.5470 hc         1 H7D       0.054200
     38 H21         18.7220     7.2560   -26.5960 hc         1 H7D       0.054200
     39 H22         20.1300     8.3600   -24.6480 h1         1 H7D       0.013700
     40 H23         20.5350     5.5220   -27.1470 h1         1 H7D       0.054200
     41 H24         21.6380     4.2030   -26.6930 h1         1 H7D       0.054200
     42 H4          21.9550     5.5080   -29.1010 hc         1 H7D       0.044700
     43 H5          23.3690     4.9810   -28.1870 hc         1 H7D       0.044700
@<TRIPOS>BOND
     1     1    14 1   
     2     1    20 1   
     3     1    21 1   
     4     2     3 1   
     5     2     4 1   
     6     2    17 1   
     7     4     8 1   
     8     4    14 1   
     9     4    22 1   
    10     5     6 1   
    11     5    15 1   
    12     5    42 1   
    13     5    43 1   
    14     6     7 1   
    15     6    23 1   
    16     6    24 1   
    17     7    16 1   
    18     7    25 1   
    19     7    26 1   
    20     8     9 1   
    21     8    27 1   
    22     8    28 1   
    23     9    10 1   
    24     9    29 1   
    25     9    30 1   
    26    10    11 1   
    27    10    31 1   
    28    10    32 1   
    29    11    12 1   
    30    11    33 1   
    31    11    34 1   
    32    12    13 1   
    33    12    35 1   
    34    12    36 1   
    35    13    14 1   
    36    13    37 1   
    37    13    38 1   
    38    14    39 1   
    39    15    16 1   
    40    15    40 1   
    41    15    41 1   
    42    16    20 1   
    43    18    20 2   
    44    19    20 2   
@<TRIPOS>SUBSTRUCTURE
     1 H7D         1 TEMP              0 ****  ****    0 ROOT
