@<TRIPOS>MOLECULE
H7D
   43    44     1     0     0
SMALL
abcg2


@<TRIPOS>ATOM
      1 N           19.8860     6.0660   -24.3040 n7         1 H7D      -0.952300
      2 C           17.5530     6.6970   -22.6770 c          1 H7D       0.713000
      3 O           16.3470     7.0190   -22.6110 o          1 H7D      -0.721000
      4 C1          18.6040     7.7740   -23.0660 c3         1 H7D      -0.205700
      5 C10         21.5650     6.5340   -28.0150 c5         1 H7D      -0.091400
      6 C11         22.7120     7.4710   -27.6240 c5         1 H7D      -0.091400
      7 C12         22.5730     7.5940   -26.1070 c5         1 H7D       0.233300
      8 C2          18.0290     9.1940   -23.0340 c3         1 H7D      -0.053400
      9 C3          18.9560    10.2840   -23.6060 c3         1 H7D      -0.075400
     10 C4          18.4360    10.9530   -24.8910 c3         1 H7D      -0.063400
     11 C5          17.7560    10.0600   -25.9380 c3         1 H7D      -0.067400
     12 C6          18.5310     8.8410   -26.4560 c3         1 H7D      -0.063400
     13 C7          18.4050     7.5310   -25.6590 c3         1 H7D      -0.075400
     14 C8          19.2930     7.4200   -24.4070 c3         1 H7D       0.251500
     15 C9          21.5580     5.4990   -26.8900 c5         1 H7D       0.233300
     16 N1          22.0470     6.2640   -25.7230 n3         1 H7D      -0.814500
     17 O1          18.0080     5.5330   -22.4500 o          1 H7D      -0.721000
     18 O2          21.7470     4.5340   -23.9430 o          1 H7D      -0.591500
     19 O3          22.1150     6.9220   -23.3730 o          1 H7D      -0.591500
     20 S           21.5040     5.9310   -24.2370 s6         1 H7D       1.334200
     21 H1          19.4070     5.5130   -23.5760 hn         1 H7D       0.565000
     22 H3          19.3960     7.7060   -22.3130 hc         1 H7D       0.045700
     23 H6          23.6720     7.0150   -27.8750 hc         1 H7D       0.044700
     24 H7          22.6560     8.4430   -28.1120 hc         1 H7D       0.044700
     25 H8          23.5200     7.7880   -25.6070 h1         1 H7D       0.054200
     26 H9          21.8710     8.3880   -25.8430 h1         1 H7D       0.054200
     27 H10         17.7820     9.4210   -21.9950 hc         1 H7D       0.048700
     28 H11         17.0780     9.1960   -23.5620 hc         1 H7D       0.048700
     29 H12         19.9500     9.8730   -23.7900 hc         1 H7D       0.027700
     30 H13         19.1060    11.0680   -22.8610 hc         1 H7D       0.027700
     31 H14         19.2690    11.4800   -25.3670 hc         1 H7D       0.017700
     32 H15         17.7110    11.7250   -24.6120 hc         1 H7D       0.017700
     33 H16         17.5270    10.7040   -26.7920 hc         1 H7D       0.032200
     34 H17         16.7860     9.7190   -25.5620 hc         1 H7D       0.032200
     35 H18         19.5920     9.0920   -26.5690 hc         1 H7D       0.018700
     36 H19         18.1660     8.6280   -27.4650 hc         1 H7D       0.018700
     37 H20         17.3560     7.3570   -25.4000 hc         1 H7D       0.054200
     38 H21         18.6960     6.7150   -26.3210 hc         1 H7D       0.054200
     39 H22         20.1200     8.1130   -24.5370 h1         1 H7D       0.013700
     40 H23         20.5650     5.0960   -26.6930 h1         1 H7D       0.054200
     41 H24         22.2360     4.6690   -27.0990 h1         1 H7D       0.054200
     42 H4          20.6210     7.0810   -28.0190 hc         1 H7D       0.044700
     43 H5          21.7010     6.0750   -28.9940 hc         1 H7D       0.044700
@<TRIPOS>BOND
     1     1    14 1   
     2     1    20 1   
     3     1    21 1   
     4     2     3 1   
     5     2     4 1   
     6     2    17 1   
     7     4     8 1   
     8     4    14 1   
     9     4    22 1   
    10     5     6 1   
    11     5    15 1   
    12     5    42 1   
    13     5    43 1   
    14     6     7 1   
    15     6    23 1   
    16     6    24 1   
    17     7    16 1   
    18     7    25 1   
    19     7    26 1   
    20     8     9 1   
    21     8    27 1   
    22     8    28 1   
    23     9    10 1   
    24     9    29 1   
    25     9    30 1   
    26    10    11 1   
    27    10    31 1   
    28    10    32 1   
    29    11    12 1   
    30    11    33 1   
    31    11    34 1   
    32    12    13 1   
    33    12    35 1   
    34    12    36 1   
    35    13    14 1   
    36    13    37 1   
    37    13    38 1   
    38    14    39 1   
    39    15    16 1   
    40    15    40 1   
    41    15    41 1   
    42    16    20 1   
    43    18    20 2   
    44    19    20 2   
@<TRIPOS>SUBSTRUCTURE
     1 H7D         1 TEMP              0 ****  ****    0 ROOT
