@<TRIPOS>MOLECULE
H7E
   83    88     1     0     0
SMALL
abcg2


@<TRIPOS>ATOM
      1 C4          -4.8430    25.8140    29.9750 c3         1 H7E       0.108200
      2 C14         -9.7920    30.9300    41.6350 c3         1 H7E       0.082900
      3 C5          -5.2450    25.2350    31.3220 c3         1 H7E      -0.130400
      4 C6          -5.5920    26.3480    32.2970 c          1 H7E       0.613100
      5 C11         -9.0300    30.4450    37.2480 c6         1 H7E       0.199800
      6 C7          -7.2510    26.8880    34.0890 ca         1 H7E      -0.021000
      7 C8          -8.5080    26.5220    34.5660 ca         1 H7E      -0.119000
      8 C9          -9.1130    27.2140    35.6060 ca         1 H7E      -0.118500
      9 C10         -8.4710    28.2970    36.2220 ca         1 H7E       0.229000
     10 C12         -9.2180    31.0670    38.6280 c6         1 H7E      -0.102400
     11 C13        -10.5190    30.5580    39.2370 c6         1 H7E       0.127300
     12 N1          -4.0300    22.9710    27.8610 nc         1 H7E      -0.356000
     13 N2          -4.5050    23.4740    29.0640 nc         1 H7E      -0.345000
     14 C3          -4.3870    24.7720    29.0130 cd         1 H7E       0.380800
     15 N3          -6.6950    26.1140    33.0490 ns         1 H7E      -0.141000
     16 C1          -3.1070    23.8770    25.7380 c3         1 H7E      -0.125400
     17 C2          -3.6430    23.9790    27.1180 cd         1 H7E       0.418800
     18 N4          -9.0250    28.9840    37.3170 nh         1 H7E      -0.792400
     19 C16        -10.9750    32.6890    40.4310 c3         1 H7E       0.082900
     20 C17        -10.4950    29.0350    39.2900 c6         1 H7E      -0.102400
     21 C18        -10.2560    28.4650    37.8920 c6         1 H7E       0.199800
     22 C19         -7.2070    28.6560    35.7310 ca         1 H7E      -0.118500
     23 C20         -6.6040    27.9750    34.6860 ca         1 H7E      -0.119000
     24 O1          -4.8910    27.3530    32.3910 o          1 H7E      -0.595100
     25 N6          -5.9950    26.4920    29.3690 n2         1 H7E      -0.585900
     26 C21         -5.8210    27.2410    28.3480 ce         1 H7E       0.543500
     27 C22         -7.0180    27.9120    27.7770 ca         1 H7E      -0.142900
     28 C23         -7.1340    28.1350    26.4030 ca         1 H7E      -0.067000
     29 C24         -8.2800    28.7100    25.8700 ca         1 H7E      -0.110500
     30 C25         -9.3080    29.0790    26.7260 ca         1 H7E       0.138000
     31 CL1        -10.7510    29.8150    26.0660 cl         1 H7E      -0.202000
     32 C26         -9.2140    28.8790    28.0990 ca         1 H7E      -0.110500
     33 C27         -8.0700    28.2910    28.6150 ca         1 H7E      -0.067000
     34 C28         -4.5050    27.5060    27.6990 ca         1 H7E      -0.152900
     35 C29         -3.5630    26.4930    27.4460 ca         1 H7E      -0.020200
     36 C30         -2.3430    26.8080    26.8640 ca         1 H7E      -0.075000
     37 C31         -2.0340    28.1150    26.5150 ca         1 H7E      -0.168000
     38 C32         -2.9590    29.1300    26.7630 ca         1 H7E       0.144100
     39 O2          -2.7550    30.4380    26.4790 os         1 H7E      -0.341100
     40 C33         -1.5010    30.8200    25.9080 c3         1 H7E       0.145900
     41 C34         -4.1850    28.8140    27.3450 ca         1 H7E      -0.107000
     42 N7          -3.8470    25.1510    27.8090 na         1 H7E      -0.284800
     43 H1          -4.0260    26.5280    30.1280 h1         1 H7E       0.089700
     44 H2         -10.1120    31.4010    42.5610 hx         1 H7E       0.094256
     45 H3          -9.7010    29.8590    41.7780 hx         1 H7E       0.094256
     46 H4          -8.8480    31.3550    41.3120 hx         1 H7E       0.094256
     47 H5          -6.0700    24.5340    31.1980 hc         1 H7E       0.086200
     48 H6          -4.4010    24.6840    31.7450 hc         1 H7E       0.086200
     49 H7          -8.0920    30.7970    36.8310 h1         1 H7E       0.059450
     50 H8          -9.8360    30.7870    36.5790 h1         1 H7E       0.059450
     51 H9          -9.0290    25.6860    34.1130 ha         1 H7E       0.139000
     52 H10        -10.0970    26.9010    35.9240 ha         1 H7E       0.111500
     53 H11         -8.3680    30.7920    39.2550 hc         1 H7E       0.068700
     54 H12         -9.2220    32.1490    38.5090 hc         1 H7E       0.068700
     55 H13        -11.3530    30.8780    38.6090 hx         1 H7E       0.086700
     56 H14         -7.2040    25.2700    32.8310 hn         1 H7E       0.160000
     57 H15         -3.3510    22.8930    25.3410 hc         1 H7E       0.064367
     58 H16         -3.5440    24.6420    25.0940 hc         1 H7E       0.064367
     59 H17         -2.0230    23.9980    25.7150 hc         1 H7E       0.064367
     60 H18        -12.4310    31.2680    41.9830 hx         1 H7E       0.094256
     61 H19        -12.9030    30.8110    40.3250 hx         1 H7E       0.094256
     62 H20        -12.0580    29.6430    41.3800 hx         1 H7E       0.094256
     63 H21        -11.3070    33.1080    41.3760 hx         1 H7E       0.094256
     64 H22        -10.0140    33.1110    40.1620 hx         1 H7E       0.094256
     65 H23        -11.7100    32.8830    39.6530 hx         1 H7E       0.094256
     66 H24        -11.4370    28.6290    39.6520 hc         1 H7E       0.068700
     67 H25         -9.6960    28.6910    39.9480 hc         1 H7E       0.068700
     68 H26        -11.1250    28.6860    37.2520 h1         1 H7E       0.059450
     69 H27        -10.1800    27.3830    37.9790 h1         1 H7E       0.059450
     70 H28         -6.6630    29.4700    36.1910 ha         1 H7E       0.111500
     71 H29         -5.6280    28.2740    34.3430 ha         1 H7E       0.139000
     72 H30         -6.3330    27.8450    25.7370 ha         1 H7E       0.129000
     73 H31         -8.3720    28.8680    24.8050 ha         1 H7E       0.133500
     74 H32        -10.0210    29.1830    28.7510 ha         1 H7E       0.133500
     75 H33         -7.9830    28.1270    29.6800 ha         1 H7E       0.129000
     76 H34         -1.6130    26.0300    26.6960 ha         1 H7E       0.132000
     77 H35         -1.0740    28.3270    26.0700 ha         1 H7E       0.131000
     78 H36         -1.5530    31.8970    25.7730 h1         1 H7E       0.048700
     79 H37         -0.6760    30.5720    26.5800 h1         1 H7E       0.048700
     80 H38         -1.3470    30.3350    24.9420 h1         1 H7E       0.048700
     81 H39         -4.8910    29.6120    27.5300 ha         1 H7E       0.145000
     82 N5         -10.8420    31.2040    40.6010 n4         1 H7E      -0.519000
     83 C15        -12.1590    30.6870    41.1070 c3         1 H7E       0.082900
@<TRIPOS>BOND
     1     1     3 1   
     2     1    14 1   
     3     1    25 1   
     4     1    43 1   
     5     2    44 1   
     6     2    45 1   
     7     2    46 1   
     8     2    82 1   
     9     3     4 1   
    10     3    47 1   
    11     3    48 1   
    12     4    15 1   
    13     4    24 2   
    14     5    10 1   
    15     5    18 1   
    16     5    49 1   
    17     5    50 1   
    18     6     7 ar  
    19     6    15 1   
    20     6    23 ar  
    21     7     8 ar  
    22     7    51 1   
    23     8     9 ar  
    24     8    52 1   
    25     9    18 1   
    26     9    22 ar  
    27    10    11 1   
    28    10    53 1   
    29    10    54 1   
    30    11    20 1   
    31    11    55 1   
    32    11    82 1   
    33    12    13 1   
    34    12    17 2   
    35    13    14 2   
    36    14    42 1   
    37    15    56 1   
    38    16    17 1   
    39    16    57 1   
    40    16    58 1   
    41    16    59 1   
    42    17    42 1   
    43    18    21 1   
    44    19    63 1   
    45    19    64 1   
    46    19    65 1   
    47    19    82 1   
    48    20    21 1   
    49    20    66 1   
    50    20    67 1   
    51    21    68 1   
    52    21    69 1   
    53    22    23 ar  
    54    22    70 1   
    55    23    71 1   
    56    25    26 2   
    57    26    27 1   
    58    26    34 1   
    59    27    28 ar  
    60    27    33 ar  
    61    28    29 ar  
    62    28    72 1   
    63    29    30 ar  
    64    29    73 1   
    65    30    31 1   
    66    30    32 ar  
    67    32    33 ar  
    68    32    74 1   
    69    33    75 1   
    70    34    35 ar  
    71    34    41 ar  
    72    35    36 ar  
    73    35    42 1   
    74    36    37 ar  
    75    36    76 1   
    76    37    38 ar  
    77    37    77 1   
    78    38    39 1   
    79    38    41 ar  
    80    39    40 1   
    81    40    78 1   
    82    40    79 1   
    83    40    80 1   
    84    41    81 1   
    85    60    83 1   
    86    61    83 1   
    87    62    83 1   
    88    82    83 1   
@<TRIPOS>SUBSTRUCTURE
     1 H7E         1 TEMP              0 ****  ****    0 ROOT
