@<TRIPOS>MOLECULE
H7E
   83    88     1     0     0
SMALL
No Charge or Current Charge


@<TRIPOS>ATOM
      1 C4          -4.5830    25.6930    30.2160 c3         1 H7E       0.108200
      2 C14         -9.8250    30.5770    41.6000 c3         1 H7E       0.082900
      3 C5          -5.0110    24.9180    31.4830 c3         1 H7E      -0.130400
      4 C6          -5.2140    25.8690    32.6640 c          1 H7E       0.613100
      5 C11         -8.8710    30.6240    37.1380 c6         1 H7E       0.199800
      6 C7          -7.1600    26.8890    34.0090 ca         1 H7E      -0.021000
      7 C8          -8.5660    26.9500    34.0250 ca         1 H7E      -0.119000
      8 C9          -9.2420    27.7040    35.0010 ca         1 H7E      -0.118500
      9 C10         -8.5260    28.4150    35.9840 ca         1 H7E       0.229000
     10 C12         -9.0460    31.0630    38.6070 c6         1 H7E      -0.102400
     11 C13        -10.4780    30.7490    39.1220 c6         1 H7E       0.127300
     12 N1          -4.4020    23.2930    27.4670 nc         1 H7E      -0.356000
     13 N2          -4.7270    23.6160    28.7810 nc         1 H7E      -0.345000
     14 C3          -4.1820    24.8000    29.0520 cd         1 H7E       0.380800
     15 N3          -6.5450    26.1040    32.9920 ns         1 H7E      -0.141000
     16 C1          -3.2860    24.4060    25.5250 c3         1 H7E      -0.125400
     17 C2          -3.7170    24.3130    26.9650 cd         1 H7E       0.418800
     18 N4          -9.1870    29.1790    36.9770 nh         1 H7E      -0.792400
     19 C16        -10.5390    32.7800    40.6650 c3         1 H7E       0.082900
     20 C17        -10.7430    29.2300    38.9280 c6         1 H7E      -0.102400
     21 C18        -10.5460    28.8050    37.4570 c6         1 H7E       0.199800
     22 C19         -7.1200    28.3520    35.9680 ca         1 H7E      -0.118500
     23 C20         -6.4390    27.5980    34.9940 ca         1 H7E      -0.119000
     24 O1          -4.2580    26.3430    33.2680 o          1 H7E      -0.595100
     25 N6          -5.6870    26.5780    29.8050 n2         1 H7E      -0.585900
     26 C21         -5.7170    27.1070    28.6160 ce         1 H7E       0.543500
     27 C22         -7.0290    27.5270    28.0180 ca         1 H7E      -0.142900
     28 C23         -7.1520    27.7090    26.6200 ca         1 H7E      -0.067000
     29 C24         -8.3870    28.0670    26.0520 ca         1 H7E      -0.110500
     30 C25         -9.5150    28.2320    26.8680 ca         1 H7E       0.138000
     31 Cl1        -11.0600    28.6780    26.1540 cl         1 H7E      -0.202000
     32 C26         -9.4150    28.0330    28.2520 ca         1 H7E      -0.110500
     33 C27         -8.1820    27.6740    28.8250 ca         1 H7E      -0.067000
     34 C28         -4.4440    27.4810    27.9070 ca         1 H7E      -0.152900
     35 C29         -3.3800    26.5670    27.6590 ca         1 H7E      -0.020200
     36 C30         -2.1950    27.0370    27.0590 ca         1 H7E      -0.075000
     37 C31         -2.0550    28.3810    26.6790 ca         1 H7E      -0.168000
     38 C32         -3.1080    29.2860    26.9090 ca         1 H7E       0.144100
     39 O2          -3.0320    30.6210    26.5640 os         1 H7E      -0.341100
     40 C33         -1.8690    31.1850    25.9310 c3         1 H7E       0.145900
     41 C34         -4.2830    28.8330    27.5230 ca         1 H7E      -0.107000
     42 N7          -3.4380    25.1990    27.9750 na         1 H7E      -0.284800
     43 H1          -3.6970    26.2930    30.4730 h1         1 H7E       0.089700
     44 H2         -10.0480    30.9600    42.5980 hx         1 H7E       0.094256
     45 H3          -9.9920    29.4990    41.5770 hx         1 H7E       0.094256
     46 H4          -8.7860    30.7950    41.3500 hx         1 H7E       0.094256
     47 H5          -5.9380    24.3740    31.2680 hc         1 H7E       0.086200
     48 H6          -4.2140    24.2120    31.7420 hc         1 H7E       0.086200
     49 H7          -7.8380    30.8390    36.8260 h1         1 H7E       0.059450
     50 H8          -9.5310    31.2270    36.4960 h1         1 H7E       0.059450
     51 H9          -9.1430    26.4130    33.2750 ha         1 H7E       0.139000
     52 H10        -10.3270    27.7410    34.9800 ha         1 H7E       0.111500
     53 H11         -8.2970    30.5520    39.2260 hc         1 H7E       0.068700
     54 H12         -8.8340    32.1360    38.6750 hc         1 H7E       0.068700
     55 H13        -11.1920    31.3020    38.5030 hx         1 H7E       0.086700
     56 H14         -7.2050    25.6360    32.3840 hn         1 H7E       0.160000
     57 H15         -3.6980    23.5790    24.9350 hc         1 H7E       0.064367
     58 H16         -3.6270    25.3430    25.0690 hc         1 H7E       0.064367
     59 H17         -2.1950    24.3650    25.4440 hc         1 H7E       0.064367
     60 H18        -12.3950    31.3930    41.9720 hx         1 H7E       0.094256
     61 H19        -12.8780    31.4510    40.2540 hx         1 H7E       0.094256
     62 H20        -12.3810    29.9040    40.9930 hx         1 H7E       0.094256
     63 H21        -10.8020    33.1220    41.6680 hx         1 H7E       0.094256
     64 H22         -9.4920    33.0150    40.4670 hx         1 H7E       0.094256
     65 H23        -11.1740    33.2760    39.9290 hx         1 H7E       0.094256
     66 H24        -11.7650    28.9710    39.2290 hc         1 H7E       0.068700
     67 H25        -10.0680    28.6430    39.5640 hc         1 H7E       0.068700
     68 H26        -11.3150    29.2830    36.8310 h1         1 H7E       0.059450
     69 H27        -10.6930    27.7170    37.3870 h1         1 H7E       0.059450
     70 H28         -6.5490    28.8820    36.7250 ha         1 H7E       0.111500
     71 H29         -5.3550    27.5780    35.0290 ha         1 H7E       0.139000
     72 H30         -6.2940    27.5690    25.9660 ha         1 H7E       0.129000
     73 H31         -8.4700    28.2110    24.9780 ha         1 H7E       0.133500
     74 H32        -10.2930    28.1530    28.8820 ha         1 H7E       0.133500
     75 H33         -8.1270    27.5220    29.9010 ha         1 H7E       0.129000
     76 H34         -1.3700    26.3500    26.8790 ha         1 H7E       0.132000
     77 H35         -1.1260    28.6980    26.2140 ha         1 H7E       0.131000
     78 H36         -2.0210    32.2560    25.7430 h1         1 H7E       0.048700
     79 H37         -0.9840    31.0760    26.5700 h1         1 H7E       0.048700
     80 H38         -1.6720    30.6960    24.9680 h1         1 H7E       0.048700
     81 H39         -5.0770    29.5510    27.7160 ha         1 H7E       0.145000
     82 N5         -10.7510    31.2590    40.5770 n4         1 H7E      -0.519000
     83 C15        -12.2090    30.9810    40.9780 c3         1 H7E       0.082900
@<TRIPOS>BOND
     1     1     3 1   
     2     1    14 1   
     3     1    25 1   
     4     1    43 1   
     5     2    44 1   
     6     2    45 1   
     7     2    46 1   
     8     2    82 1   
     9     3     4 1   
    10     3    47 1   
    11     3    48 1   
    12     4    15 1   
    13     4    24 2   
    14     5    10 1   
    15     5    18 1   
    16     5    49 1   
    17     5    50 1   
    18     6     7 ar  
    19     6    15 1   
    20     6    23 ar  
    21     7     8 ar  
    22     7    51 1   
    23     8     9 ar  
    24     8    52 1   
    25     9    18 1   
    26     9    22 ar  
    27    10    11 1   
    28    10    53 1   
    29    10    54 1   
    30    11    20 1   
    31    11    55 1   
    32    11    82 1   
    33    12    13 1   
    34    12    17 2   
    35    13    14 2   
    36    14    42 1   
    37    15    56 1   
    38    16    17 1   
    39    16    57 1   
    40    16    58 1   
    41    16    59 1   
    42    17    42 1   
    43    18    21 1   
    44    19    63 1   
    45    19    64 1   
    46    19    65 1   
    47    19    82 1   
    48    20    21 1   
    49    20    66 1   
    50    20    67 1   
    51    21    68 1   
    52    21    69 1   
    53    22    23 ar  
    54    22    70 1   
    55    23    71 1   
    56    25    26 2   
    57    26    27 1   
    58    26    34 1   
    59    27    28 ar  
    60    27    33 ar  
    61    28    29 ar  
    62    28    72 1   
    63    29    30 ar  
    64    29    73 1   
    65    30    31 1   
    66    30    32 ar  
    67    32    33 ar  
    68    32    74 1   
    69    33    75 1   
    70    34    35 ar  
    71    34    41 ar  
    72    35    36 ar  
    73    35    42 1   
    74    36    37 ar  
    75    36    76 1   
    76    37    38 ar  
    77    37    77 1   
    78    38    39 1   
    79    38    41 ar  
    80    39    40 1   
    81    40    78 1   
    82    40    79 1   
    83    40    80 1   
    84    41    81 1   
    85    60    83 1   
    86    61    83 1   
    87    62    83 1   
    88    82    83 1   
@<TRIPOS>SUBSTRUCTURE
     1 H7E         1 TEMP              0 ****  ****    0 ROOT
