@<TRIPOS>MOLECULE
H7F
   54    57     1     0     0
SMALL
bcc


@<TRIPOS>ATOM
      1 C10         83.2110   142.9810    15.5510 ca         1 H7F       0.390600
      2 C13         83.6440   140.5020    14.3060 ca         1 H7F       0.157100
      3 C20         77.7300   140.8260    15.1660 c6         1 H7F      -0.111400
      4 C21         77.5790   140.4700    13.6880 c6         1 H7F       0.148300
      5 C24         79.3080   138.9090    15.3920 c6         1 H7F      -0.111400
      6 C26         79.0760   143.9700    21.0770 c3         1 H7F       0.122700
      7 C01         80.5530   144.6810    19.3710 ca         1 H7F       0.158100
      8 C02         81.2300   145.7860    18.7730 ca         1 H7F      -0.142000
      9 C03         82.0380   145.5940    17.7030 ca         1 H7F      -0.134300
     10 C04         82.2210   144.2950    17.1450 ca         1 H7F       0.372600
     11 C05         81.5350   143.1910    17.7360 ca         1 H7F      -0.059300
     12 C06         80.7070   143.4180    18.8690 ca         1 H7F      -0.242000
     13 C08         82.8070   140.5580    15.3830 ca         1 H7F      -0.234000
     14 C09         82.5690   141.7970    16.0400 ca         1 H7F      -0.054300
     15 C11         84.0990   142.8830    14.4260 ca         1 H7F      -0.093600
     16 C12         84.2950   141.6790    13.8340 ca         1 H7F      -0.124000
     17 C16         81.7210   141.9290    17.1490 ca         1 H7F       0.028900
     18 C18         83.2820   138.1890    13.9630 c3         1 H7F       0.121700
     19 C19         79.2290   140.7220    17.1650 c3         1 H7F       0.016700
     20 C23         79.1050   138.6210    13.9070 c6         1 H7F       0.148300
     21 C25         79.1010   140.3910    15.6860 c6         1 H7F      -0.060700
     22 C27         84.7650   144.1140    13.8840 c3         1 H7F       0.192700
     23 N07         83.0290   144.1730    16.0990 nb         1 H7F      -0.624000
     24 N22         77.8220   139.0690    13.3870 n7         1 H7F      -0.788200
     25 O14         79.7920   145.0010    20.4260 os         1 H7F      -0.312900
     26 O15         83.9260   139.3950    13.6040 os         1 H7F      -0.311900
     27 O28         83.8140   144.8410    13.1360 oh         1 H7F      -0.585800
     28 S17         80.9130   140.5070    17.8390 ss         1 H7F      -0.308000
     29 H2          76.9420   140.3300    15.7450 hc         1 H7F       0.044950
     30 H3          78.2860   141.0700    13.1050 h1         1 H7F       0.053200
     31 H4          76.5800   140.7350    13.3350 h1         1 H7F       0.053200
     32 H5          78.5910   138.3220    15.9800 hc         1 H7F       0.044950
     33 H6          80.3050   138.5830    15.7000 hc         1 H7F       0.044950
     34 H7          78.5230   144.4400    21.8860 h1         1 H7F       0.044367
     35 H8          78.3710   143.4790    20.4020 h1         1 H7F       0.044367
     36 H9          79.7450   143.2140    21.4980 h1         1 H7F       0.044367
     37 H10         81.0890   146.7740    19.1920 ha         1 H7F       0.150000
     38 H11         82.5610   146.4230    17.2460 ha         1 H7F       0.152000
     39 H12         80.2190   142.5680    19.3230 ha         1 H7F       0.154000
     40 H13         82.3140   139.6760    15.7640 ha         1 H7F       0.158000
     41 H14         84.9560   141.5920    12.9790 ha         1 H7F       0.151000
     42 H15         83.6340   137.4310    13.2680 h1         1 H7F       0.044367
     43 H16         83.5320   137.8810    14.9820 h1         1 H7F       0.044367
     44 H17         82.1950   138.2720    13.8770 h1         1 H7F       0.044367
     45 H18         78.9100   141.7470    17.3660 h1         1 H7F       0.069700
     46 H19         78.5970   140.0620    17.7650 h1         1 H7F       0.069700
     47 H20         79.2080   137.5520    13.7100 h1         1 H7F       0.053200
     48 H21         79.8960   139.1210    13.3360 h1         1 H7F       0.053200
     49 H22         79.8590   140.9650    15.1370 hc         1 H7F       0.065700
     50 H23         85.6150   143.8080    13.2610 h1         1 H7F       0.031200
     51 H24         85.1670   144.7070    14.7110 h1         1 H7F       0.031200
     52 H25         77.0880   138.5120    13.8090 hn         1 H7F       0.345800
     53 H27         84.1890   145.7050    12.9400 ho         1 H7F       0.403000
     54 H1          77.5970   141.9030    15.3050 hc         1 H7F       0.044950
@<TRIPOS>BOND
     1     1    14 ar  
     2     1    15 ar  
     3     1    23 ar  
     4     2    13 ar  
     5     2    16 ar  
     6     2    26 1   
     7     3     4 1   
     8     3    21 1   
     9     3    29 1   
    10     3    54 1   
    11     4    24 1   
    12     4    30 1   
    13     4    31 1   
    14     5    20 1   
    15     5    21 1   
    16     5    32 1   
    17     5    33 1   
    18     6    25 1   
    19     6    34 1   
    20     6    35 1   
    21     6    36 1   
    22     7     8 ar  
    23     7    12 ar  
    24     7    25 1   
    25     8     9 ar  
    26     8    37 1   
    27     9    10 ar  
    28     9    38 1   
    29    10    11 ar  
    30    10    23 ar  
    31    11    12 ar  
    32    11    17 ar  
    33    12    39 1   
    34    13    14 ar  
    35    13    40 1   
    36    14    17 ar  
    37    15    16 ar  
    38    15    22 1   
    39    16    41 1   
    40    17    28 1   
    41    18    26 1   
    42    18    42 1   
    43    18    43 1   
    44    18    44 1   
    45    19    21 1   
    46    19    28 1   
    47    19    45 1   
    48    19    46 1   
    49    20    24 1   
    50    20    47 1   
    51    20    48 1   
    52    21    49 1   
    53    22    27 1   
    54    22    50 1   
    55    22    51 1   
    56    24    52 1   
    57    27    53 1   
@<TRIPOS>SUBSTRUCTURE
     1 H7F         1 TEMP              0 ****  ****    0 ROOT
