@<TRIPOS>MOLECULE
H7F
   54    57     1     0     0
SMALL
No Charge or Current Charge


@<TRIPOS>ATOM
      1 C10         83.1750   142.9900    15.5030 ca         1 H7F       0.260000
      2 C13         83.7110   140.4560    14.3330 ca         1 H7F       0.157100
      3 C20         77.6730   140.9120    15.2560 c6         1 H7F      -0.111400
      4 C21         77.5410   140.7470    13.7210 c6         1 H7F       0.148300
      5 C24         79.3580   139.0210    15.2590 c6         1 H7F      -0.111400
      6 C26         79.0300   143.8310    21.2270 c3         1 H7F       0.145900
      7 C01         80.4890   144.6650    19.4150 ca         1 H7F       0.158100
      8 C02         81.0880   145.7710    18.8020 ca         1 H7F      -0.124000
      9 C03         81.9040   145.5970    17.6730 ca         1 H7F      -0.051000
     10 C04         82.1360   144.3190    17.1330 ca         1 H7F       0.242000
     11 C05         81.5260   143.1930    17.7460 ca         1 H7F       0.006000
     12 C06         80.7090   143.3750    18.8900 ca         1 H7F      -0.224000
     13 C08         82.8880   140.5480    15.4700 ca         1 H7F      -0.216000
     14 C09         82.6080   141.8060    16.0570 ca         1 H7F       0.011000
     15 C11         84.0090   142.8800    14.3580 ca         1 H7F      -0.028300
     16 C12         84.2650   141.6180    13.7890 ca         1 H7F      -0.106000
     17 C16         81.7590   141.9080    17.1920 ca         1 H7F      -0.098000
     18 C18         83.4500   138.0040    14.1670 c3         1 H7F       0.144900
     19 C19         79.2150   140.6130    17.2900 c3         1 H7F       0.064600
     20 C23         79.1890   138.9100    13.7250 c6         1 H7F       0.148300
     21 C25         79.0770   140.4700    15.7470 c6         1 H7F      -0.060700
     22 C27         84.6610   144.1010    13.7030 c3         1 H7F       0.215900
     23 N07         82.9300   144.2070    16.0480 nb         1 H7F      -0.624000
     24 N22         77.8360   139.3530    13.3090 n7         1 H7F      -0.843400
     25 O14         79.6990   144.8930    20.5240 os         1 H7F      -0.336100
     26 O15         84.0030   139.2540    13.7200 os         1 H7F      -0.335100
     27 O28         84.0750   144.3600    12.4190 oh         1 H7F      -0.648000
     28 S17         80.9600   140.4470    17.8870 ss         1 H7F      -0.229000
     29 H2          76.8940   140.3220    15.7590 hc         1 H7F       0.044950
     30 H3          78.2360   141.4350    13.2170 h1         1 H7F       0.053200
     31 H4          76.5220   141.0190    13.4070 h1         1 H7F       0.053200
     32 H5          78.6740   138.3180    15.7550 hc         1 H7F       0.044950
     33 H6          80.3720   138.7090    15.5350 hc         1 H7F       0.044950
     34 H7          78.4570   144.2360    22.0710 h1         1 H7F       0.044367
     35 H8          78.3330   143.3030    20.5650 h1         1 H7F       0.044367
     36 H9          79.7550   143.1090    21.6250 h1         1 H7F       0.044367
     37 H10         80.9210   146.7670    19.2030 ha         1 H7F       0.132000
     38 H11         82.3660   146.4640    17.2090 ha         1 H7F       0.134000
     39 H12         80.2550   142.5190    19.3740 ha         1 H7F       0.136000
     40 H13         82.4740   139.6450    15.8980 ha         1 H7F       0.140000
     41 H14         84.9000   141.5390    12.9110 ha         1 H7F       0.133000
     42 H15         83.8080   137.1820    13.5340 h1         1 H7F       0.044367
     43 H16         83.7500   137.7910    15.2010 h1         1 H7F       0.044367
     44 H17         82.3540   138.0210    14.1130 h1         1 H7F       0.044367
     45 H18         78.8420   141.6000    17.5920 h1         1 H7F       0.069700
     46 H19         78.5950   139.8530    17.7820 h1         1 H7F       0.069700
     47 H20         79.3510   137.8670    13.4100 h1         1 H7F       0.053200
     48 H21         79.9510   139.5280    13.2260 h1         1 H7F       0.053200
     49 H22         79.8200   141.1450    15.3000 hc         1 H7F       0.065700
     50 H23         85.7340   143.9000    13.5890 h1         1 H7F       0.031200
     51 H24         84.5770   144.9890    14.3420 h1         1 H7F       0.031200
     52 H25         77.1470   138.7360    13.7560 hn         1 H7F       0.401000
     53 H27         84.5230   145.1580    12.0610 ho         1 H7F       0.442000
     54 H1          77.4930   141.9620    15.5250 hc         1 H7F       0.044950
@<TRIPOS>BOND
     1     1    14 ar  
     2     1    15 ar  
     3     1    23 ar  
     4     2    13 ar  
     5     2    16 ar  
     6     2    26 1   
     7     3     4 1   
     8     3    21 1   
     9     3    29 1   
    10     3    54 1   
    11     4    24 1   
    12     4    30 1   
    13     4    31 1   
    14     5    20 1   
    15     5    21 1   
    16     5    32 1   
    17     5    33 1   
    18     6    25 1   
    19     6    34 1   
    20     6    35 1   
    21     6    36 1   
    22     7     8 ar  
    23     7    12 ar  
    24     7    25 1   
    25     8     9 ar  
    26     8    37 1   
    27     9    10 ar  
    28     9    38 1   
    29    10    11 ar  
    30    10    23 ar  
    31    11    12 ar  
    32    11    17 ar  
    33    12    39 1   
    34    13    14 ar  
    35    13    40 1   
    36    14    17 ar  
    37    15    16 ar  
    38    15    22 1   
    39    16    41 1   
    40    17    28 1   
    41    18    26 1   
    42    18    42 1   
    43    18    43 1   
    44    18    44 1   
    45    19    21 1   
    46    19    28 1   
    47    19    45 1   
    48    19    46 1   
    49    20    24 1   
    50    20    47 1   
    51    20    48 1   
    52    21    49 1   
    53    22    27 1   
    54    22    50 1   
    55    22    51 1   
    56    24    52 1   
    57    27    53 1   
@<TRIPOS>SUBSTRUCTURE
     1 H7F         1 TEMP              0 ****  ****    0 ROOT
