@<TRIPOS>MOLECULE
H7G
   33    34     1     0     0
SMALL
No Charge or Current Charge


@<TRIPOS>ATOM
      1 C15          2.1620     0.8930    -1.3880 ca         1 H7G       0.036000
      2 C17          3.3530    -1.1950    -1.7700 ca         1 H7G      -0.014000
      3 C20          2.7880    -0.5110     0.5070 ca         1 H7G       0.253100
      4 C22         -2.0290    -0.0430     0.3470 ca         1 H7G      -0.108000
      5 C02         -5.2050    -1.0410     0.2170 c          1 H7G       0.726000
      6 C05         -2.9510    -0.4070    -0.6540 ca         1 H7G       0.019700
      7 C06         -2.9710     0.3090    -1.8650 ca         1 H7G      -0.112000
      8 C07         -2.0840     1.3770    -2.0700 ca         1 H7G      -0.117000
      9 C08         -1.1670     1.7320    -1.0660 ca         1 H7G      -0.106000
     10 C09         -1.1250     1.0170     0.1470 ca         1 H7G       0.194000
     11 C14          2.1700     0.6550     0.0030 ca         1 H7G      -0.406500
     12 C16          2.7510    -0.0290    -2.2680 ca         1 H7G      -0.163000
     13 C18          3.3740    -1.4370    -0.3870 ca         1 H7G       0.046000
     14 N10         -0.2280     1.3350     1.1690 nu         1 H7G      -0.843100
     15 O01         -5.2420    -0.9500     1.4350 o          1 H7G      -0.721000
     16 O03         -6.0890    -0.6280    -0.5190 o          1 H7G      -0.721000
     17 O12          1.8470     1.6400     2.4450 o          1 H7G      -0.553000
     18 O13          1.3140     3.1610     0.4440 o          1 H7G      -0.553000
     19 O21          2.8400    -0.7570     1.8510 oh         1 H7G      -0.528100
     20 S11          1.3700     1.8410     1.0750 sy         1 H7G       1.138600
     21 Cl1          4.1530    -2.9090     0.2040 cl         1 H7G      -0.189000
     22 H1           1.7000     1.7900    -1.7990 ha         1 H7G       0.141000
     23 H2           3.8070    -1.9080    -2.4530 ha         1 H7G       0.127000
     24 H3          -2.0130    -0.5930     1.2830 ha         1 H7G       0.119000
     25 H4          -3.4190    -2.2740     0.2460 hc         1 H7G       0.035200
     26 H5          -4.1360    -2.0000    -1.4110 hc         1 H7G       0.035200
     27 H6          -3.6790     0.0410    -2.6460 ha         1 H7G       0.111000
     28 H7          -2.1100     1.9350    -3.0030 ha         1 H7G       0.100000
     29 H8          -0.5050     2.5740    -1.2360 ha         1 H7G       0.120000
     30 H9           2.7380     0.1600    -3.3380 ha         1 H7G       0.124000
     31 H10         -0.2920     0.7950     2.0210 hn         1 H7G       0.490000
     32 H12          2.5570     0.0670     2.3160 ho         1 H7G       0.515000
     33 C04         -3.9160    -1.5670    -0.4280 c3         1 H7G      -0.197100
@<TRIPOS>BOND
     1     1    11 ar  
     2     1    12 ar  
     3     1    22 1   
     4     2    12 ar  
     5     2    13 ar  
     6     2    23 1   
     7     3    11 ar  
     8     3    13 ar  
     9     3    19 1   
    10     4     6 ar  
    11     4    10 ar  
    12     4    24 1   
    13     5    15 1   
    14     5    16 1   
    15     5    33 1   
    16     6     7 ar  
    17     6    33 1   
    18     7     8 ar  
    19     7    27 1   
    20     8     9 ar  
    21     8    28 1   
    22     9    10 ar  
    23     9    29 1   
    24    10    14 1   
    25    11    20 1   
    26    12    30 1   
    27    13    21 1   
    28    14    20 1   
    29    14    31 1   
    30    17    20 2   
    31    18    20 2   
    32    19    32 1   
    33    25    33 1   
    34    26    33 1   
@<TRIPOS>SUBSTRUCTURE
     1 H7G         1 TEMP              0 ****  ****    0 ROOT
