@<TRIPOS>MOLECULE
H7G
   33    34     1     0     0
SMALL
abcg2


@<TRIPOS>ATOM
      1 C15          1.5970     0.2490    -1.3820 ca         1 H7G       0.036000
      2 C17          2.3580    -2.0150    -1.2460 ca         1 H7G      -0.014000
      3 C20          2.4790    -0.6030     0.7270 ca         1 H7G       0.253100
      4 C22         -1.5250     0.2710     0.0120 ca         1 H7G      -0.108000
      5 C02         -4.0170    -1.8860    -0.1290 c          1 H7G       0.726000
      6 C05         -2.4840    -0.0090    -0.9570 ca         1 H7G       0.019700
      7 C06         -2.9700     1.0490    -1.7200 ca         1 H7G      -0.112000
      8 C07         -2.5240     2.3490    -1.5140 ca         1 H7G      -0.117000
      9 C08         -1.5770     2.6200    -0.5390 ca         1 H7G      -0.106000
     10 C09         -1.0760     1.5680     0.2180 ca         1 H7G       0.194000
     11 C14          1.9200     0.4310    -0.0390 ca         1 H7G      -0.406500
     12 C16          1.8170    -0.9720    -1.9860 ca         1 H7G      -0.163000
     13 C18          2.6850    -1.8290     0.0830 ca         1 H7G       0.046000
     14 N10         -0.0880     1.8300     1.2110 nu         1 H7G      -0.843100
     15 O01         -4.1560    -1.2110     0.9050 o          1 H7G      -0.721000
     16 O03         -4.6150    -2.9380    -0.4270 o          1 H7G      -0.721000
     17 O12          2.2710     2.1080     1.9370 o          1 H7G      -0.553000
     18 O13          1.5310     3.0060    -0.2970 o          1 H7G      -0.553000
     19 O21          2.8300    -0.5100     2.0050 oh         1 H7G      -0.528100
     20 S11          1.4850     1.9690     0.7100 sy         1 H7G       1.138600
     21 CL1          3.3780    -3.1210     0.9920 cl         1 H7G      -0.189000
     22 H1           1.1740     1.0640    -1.9530 ha         1 H7G       0.141000
     23 H2           2.5350    -2.9770    -1.7060 ha         1 H7G       0.127000
     24 H3          -1.1090    -0.5360     0.6050 ha         1 H7G       0.119000
     25 H4          -2.1240    -2.1010    -1.1170 hc         1 H7G       0.035200
     26 H5          -3.3850    -1.5150    -2.1710 hc         1 H7G       0.035200
     27 H6          -3.7100     0.8570    -2.4880 ha         1 H7G       0.111000
     28 H7          -2.9200     3.1560    -2.1160 ha         1 H7G       0.100000
     29 H8          -1.2380     3.6310    -0.3610 ha         1 H7G       0.120000
     30 H9           1.5670    -1.1190    -3.0270 ha         1 H7G       0.124000
     31 H10         -0.1600     1.2470     2.0400 hn         1 H7G       0.490000
     32 H12          2.7810     0.4180     2.3050 ho         1 H7G       0.515000
     33 C04         -2.9690    -1.4060    -1.1670 c3         1 H7G      -0.197100
@<TRIPOS>BOND
     1     1    11 ar  
     2     1    12 ar  
     3     1    22 1   
     4     2    12 ar  
     5     2    13 ar  
     6     2    23 1   
     7     3    11 ar  
     8     3    13 ar  
     9     3    19 1   
    10     4     6 ar  
    11     4    10 ar  
    12     4    24 1   
    13     5    15 1   
    14     5    16 1   
    15     5    33 1   
    16     6     7 ar  
    17     6    33 1   
    18     7     8 ar  
    19     7    27 1   
    20     8     9 ar  
    21     8    28 1   
    22     9    10 ar  
    23     9    29 1   
    24    10    14 1   
    25    11    20 1   
    26    12    30 1   
    27    13    21 1   
    28    14    20 1   
    29    14    31 1   
    30    17    20 2   
    31    18    20 2   
    32    19    32 1   
    33    25    33 1   
    34    26    33 1   
@<TRIPOS>SUBSTRUCTURE
     1 H7G         1 TEMP              0 ****  ****    0 ROOT
