@<TRIPOS>MOLECULE
H7I
   39    39     1     0     0
SMALL
bcc


@<TRIPOS>ATOM
      1 C21         52.2820   -65.5970    18.7460 c          1 H7I       0.929600
      2 C18         50.5340   -62.5210    16.9860 c3         1 H7I       0.103500
      3 C19         50.8170   -63.9920    17.3440 c3         1 H7I      -0.086400
      4 C20         51.8640   -64.1430    18.4360 c3         1 H7I      -0.212400
      5 N17         49.9950   -61.6870    18.0490 n7         1 H7I      -0.811200
      6 C35         48.9860   -62.2650    18.9180 c3         1 H7I       0.152100
      7 O23         52.1100   -66.4480    17.8500 o          1 H7I      -0.840800
      8 O22         52.7960   -65.7910    19.8660 o          1 H7I      -0.840800
      9 C24         49.6250   -62.4880    15.7620 c          1 H7I       0.688100
     10 O34         48.4070   -62.4010    15.8610 o          1 H7I      -0.628100
     11 N25         50.2260   -62.6180    14.5610 n          1 H7I      -0.490800
     12 C29         51.6650   -62.5920    14.3040 c5         1 H7I       0.104000
     13 C28         51.7690   -62.8650    12.8080 c5         1 H7I      -0.094400
     14 C27         50.4620   -62.3080    12.2570 c5         1 H7I      -0.094400
     15 C26         49.4400   -62.6730    13.3320 c5         1 H7I       0.122700
     16 C30         48.8310   -64.0730    13.1360 c3         1 H7I      -0.180400
     17 C31         47.8390   -64.0840    11.9940 c          1 H7I       0.674100
     18 O33         48.1280   -64.4720    10.8710 o          1 H7I      -0.627100
     19 N32         46.6280   -63.5910    12.3050 nt         1 H7I      -0.680000
     20 H1          51.4910   -62.0620    16.7200 h1         1 H7I       0.048700
     21 H2          49.8850   -64.4840    17.6360 hc         1 H7I       0.055700
     22 H3          51.1580   -64.5200    16.4510 hc         1 H7I       0.055700
     23 H4          52.7690   -63.5990    18.1350 hc         1 H7I       0.014700
     24 H5          51.5330   -63.6610    19.3600 hc         1 H7I       0.014700
     25 H6          50.7680   -61.3710    18.6180 hn         1 H7I       0.353800
     26 H8          48.6950   -61.5160    19.6560 h1         1 H7I       0.032367
     27 H9          48.0960   -62.5260    18.3510 h1         1 H7I       0.032367
     28 H10         49.3060   -63.1570    19.4700 h1         1 H7I       0.032367
     29 H12         52.1990   -63.3400    14.8900 h1         1 H7I       0.053200
     30 H13         52.0830   -61.6120    14.5520 h1         1 H7I       0.053200
     31 H14         51.8390   -63.9390    12.6220 hc         1 H7I       0.052700
     32 H15         52.6520   -62.4000    12.3720 hc         1 H7I       0.052700
     33 H16         50.5250   -61.2220    12.1630 hc         1 H7I       0.054700
     34 H17         50.2040   -62.7100    11.2780 hc         1 H7I       0.054700
     35 H18         48.6340   -61.9380    13.3810 h1         1 H7I       0.065700
     36 H19         48.3350   -64.3790    14.0580 hc         1 H7I       0.081700
     37 H20         49.6180   -64.8000    12.9270 hc         1 H7I       0.081700
     38 H21         45.9010   -63.5400    11.6100 hn         1 H7I       0.312500
     39 H22         46.3940   -63.3130    13.2430 hn         1 H7I       0.312500
@<TRIPOS>BOND
     1     1     4 1   
     2     1     7 1   
     3     1     8 1   
     4     2     3 1   
     5     2     5 1   
     6     2     9 1   
     7     2    20 1   
     8     3     4 1   
     9     3    21 1   
    10     3    22 1   
    11     4    23 1   
    12     4    24 1   
    13     5     6 1   
    14     5    25 1   
    15     6    26 1   
    16     6    27 1   
    17     6    28 1   
    18     9    10 2   
    19     9    11 1   
    20    11    12 1   
    21    11    15 1   
    22    12    13 1   
    23    12    29 1   
    24    12    30 1   
    25    13    14 1   
    26    13    31 1   
    27    13    32 1   
    28    14    15 1   
    29    14    33 1   
    30    14    34 1   
    31    15    16 1   
    32    15    35 1   
    33    16    17 1   
    34    16    36 1   
    35    16    37 1   
    36    17    18 2   
    37    17    19 1   
    38    19    38 1   
    39    19    39 1   
@<TRIPOS>SUBSTRUCTURE
     1 H7I         1 TEMP              0 ****  ****    0 ROOT
