@<TRIPOS>MOLECULE
H7I
   39    39     1     0     0
SMALL
No Charge or Current Charge


@<TRIPOS>ATOM
      1 C21         52.4050   -65.5960    18.6830 c          1 H7I       0.719000
      2 C18         50.5820   -62.4680    17.0860 c3         1 H7I       0.103500
      3 C19         50.9220   -63.9440    17.4530 c3         1 H7I      -0.086400
      4 C20         52.0700   -64.1060    18.4880 c3         1 H7I      -0.212400
      5 N17         50.1540   -61.6850    18.3060 n7         1 H7I      -0.866400
      6 C35         48.9260   -62.1150    19.0160 c3         1 H7I       0.152100
      7 O23         53.2330   -66.1020    17.9410 o          1 H7I      -0.735500
      8 O22         51.7900   -66.2180    19.5360 o          1 H7I      -0.735500
      9 C24         49.6370   -62.3970    15.8110 c          1 H7I       0.621100
     10 O34         48.4360   -62.1500    15.8940 o          1 H7I      -0.628100
     11 N25         50.2010   -62.6790    14.5410 n          1 H7I      -0.423800
     12 C29         51.6570   -62.6110    14.2680 c5         1 H7I       0.104000
     13 C28         51.7250   -62.9880    12.7700 c5         1 H7I      -0.094400
     14 C27         50.4450   -62.3000    12.2370 c5         1 H7I      -0.094400
     15 C26         49.3810   -62.6950    13.3050 c5         1 H7I       0.122700
     16 C30         48.7340   -64.0870    13.0870 c3         1 H7I      -0.180400
     17 C31         47.7840   -64.0810    11.8930 c          1 H7I       0.607100
     18 O33         48.1290   -64.3480    10.7560 o          1 H7I      -0.627100
     19 N32         46.5030   -63.7490    12.1550 nt         1 H7I      -0.613000
     20 H1          51.5250   -62.0150    16.7550 h1         1 H7I       0.048700
     21 H2          50.0210   -64.4540    17.8160 hc         1 H7I       0.055700
     22 H3          51.2100   -64.4770    16.5390 hc         1 H7I       0.055700
     23 H4          52.9320   -63.5740    18.0650 hc         1 H7I       0.014700
     24 H5          51.7030   -63.6750    19.4280 hc         1 H7I       0.014700
     25 H6          50.9270   -61.7290    18.9820 hn         1 H7I       0.409000
     26 H8          48.7310   -61.4530    19.8700 h1         1 H7I       0.032367
     27 H9          48.0430   -62.0810    18.3660 h1         1 H7I       0.032367
     28 H10         49.0260   -63.1360    19.4070 h1         1 H7I       0.032367
     29 H12         52.2410   -63.3080    14.8820 h1         1 H7I       0.053200
     30 H13         52.0350   -61.5940    14.4410 h1         1 H7I       0.053200
     31 H14         51.6960   -64.0740    12.6260 hc         1 H7I       0.052700
     32 H15         52.6380   -62.6190    12.2880 hc         1 H7I       0.052700
     33 H16         50.5730   -61.2110    12.2020 hc         1 H7I       0.054700
     34 H17         50.1840   -62.6200    11.2220 hc         1 H7I       0.054700
     35 H18         48.5830   -61.9400    13.3430 h1         1 H7I       0.065700
     36 H19         48.1530   -64.3140    13.9880 hc         1 H7I       0.081700
     37 H20         49.5020   -64.8520    12.9360 hc         1 H7I       0.081700
     38 H21         45.8340   -63.7290    11.4000 hn         1 H7I       0.312500
     39 H22         46.2200   -63.5250    13.0980 hn         1 H7I       0.312500
@<TRIPOS>BOND
     1     1     4 1   
     2     1     7 1   
     3     1     8 1   
     4     2     3 1   
     5     2     5 1   
     6     2     9 1   
     7     2    20 1   
     8     3     4 1   
     9     3    21 1   
    10     3    22 1   
    11     4    23 1   
    12     4    24 1   
    13     5     6 1   
    14     5    25 1   
    15     6    26 1   
    16     6    27 1   
    17     6    28 1   
    18     9    10 2   
    19     9    11 1   
    20    11    12 1   
    21    11    15 1   
    22    12    13 1   
    23    12    29 1   
    24    12    30 1   
    25    13    14 1   
    26    13    31 1   
    27    13    32 1   
    28    14    15 1   
    29    14    33 1   
    30    14    34 1   
    31    15    16 1   
    32    15    35 1   
    33    16    17 1   
    34    16    36 1   
    35    16    37 1   
    36    17    18 2   
    37    17    19 1   
    38    19    38 1   
    39    19    39 1   
@<TRIPOS>SUBSTRUCTURE
     1 H7I         1 TEMP              0 ****  ****    0 ROOT
