@<TRIPOS>MOLECULE
H7J
   55    56     1     0     0
SMALL
No Charge or Current Charge


@<TRIPOS>ATOM
      1 O25         -4.2130    -1.1320     0.5270 o          1 H7J      -0.596100
      2 C18         -3.3120    -0.3340     0.7430 c          1 H7J       0.616700
      3 C19         -3.6010     1.1130     1.0970 ca         1 H7J      -0.153600
      4 C24         -4.9450     1.5480     1.1950 ca         1 H7J      -0.075000
      5 C23         -5.2500     2.8800     1.5210 ca         1 H7J      -0.118500
      6 C22         -4.2190     3.8030     1.7530 ca         1 H7J      -0.090000
      7 C21         -2.8810     3.3900     1.6590 ca         1 H7J      -0.118500
      8 C20         -2.5700     2.0580     1.3340 ca         1 H7J      -0.075000
      9 N17         -1.9740    -0.6840     0.6800 ns         1 H7J      -0.509900
     10 C14         -1.3890    -2.0060     0.3560 c3         1 H7J       0.132100
     11 C16         -1.8460    -3.0000     1.4680 c3         1 H7J      -0.089100
     12 C15         -1.8540    -2.4950    -1.0730 c3         1 H7J      -0.063700
     13 C27         -1.6340    -1.4410    -2.1940 c3         1 H7J      -0.085600
     14 C26         -1.2420    -3.8530    -1.5120 c3         1 H7J      -0.085600
     15 C12          0.1370    -1.8470     0.3790 cc         1 H7J       0.195300
     16 N11          0.9870    -2.8270     0.8250 nc         1 H7J      -0.350000
     17 N10          2.2190    -2.4000     0.7240 nd         1 H7J      -0.201800
     18 C13          0.8620    -0.7570    -0.0060 cd         1 H7J      -0.214000
     19 N            2.1660    -1.1310     0.2160 na         1 H7J       0.124800
     20 C4           3.3850    -0.3510    -0.0470 c3         1 H7J      -0.021700
     21 C2           3.5400    -0.1260    -1.5620 c          1 H7J       0.562100
     22 C            4.3000    -1.2070    -2.3300 c3         1 H7J      -0.201100
     23 O            3.0750     0.8490    -2.1410 o          1 H7J      -0.491100
     24 C5           3.4270     0.9650     0.7740 c3         1 H7J      -0.037200
     25 C7           4.7610     1.6760     0.6520 c2         1 H7J      -0.248200
     26 C8           4.9670     2.8220    -0.0150 c2         1 H7J      -0.179200
     27 C9           6.2960     3.5360    -0.1300 c3         1 H7J      -0.062900
     28 H24         -5.7620     0.8510     1.0190 ha         1 H7J       0.121500
     29 H23         -6.2880     3.1980     1.5920 ha         1 H7J       0.117000
     30 H22         -4.4560     4.8350     2.0040 ha         1 H7J       0.115000
     31 H21         -2.0810     4.1050     1.8390 ha         1 H7J       0.117000
     32 H20         -1.5210     1.7820     1.2710 ha         1 H7J       0.121500
     33 HN17        -1.3250     0.0560     0.9020 hn         1 H7J       0.307500
     34 H161        -1.5960    -2.6070     2.4600 hc         1 H7J       0.053033
     35 H162        -2.9270    -3.1740     1.4370 hc         1 H7J       0.053033
     36 H163        -1.3600    -3.9770     1.3710 hc         1 H7J       0.053033
     37 H15         -2.9350    -2.6660    -1.0270 hc         1 H7J       0.061700
     38 H271        -0.5670    -1.2480    -2.3540 hc         1 H7J       0.036367
     39 H272        -2.0540    -1.7980    -3.1420 hc         1 H7J       0.036367
     40 H273        -2.1260    -0.4900    -1.9580 hc         1 H7J       0.036367
     41 H261        -1.6500    -4.1590    -2.4830 hc         1 H7J       0.036367
     42 H262        -0.1530    -3.7850    -1.6160 hc         1 H7J       0.036367
     43 H263        -1.4750    -4.6510    -0.7990 hc         1 H7J       0.036367
     44 H13          0.5660     0.2010    -0.4150 h4         1 H7J       0.174000
     45 H4           4.2390    -0.9630     0.2670 h1         1 H7J       0.106700
     46 H1           3.8570    -2.1840    -2.1060 hc         1 H7J       0.070700
     47 H2           4.3360    -1.0130    -3.4080 hc         1 H7J       0.070700
     48 H3           5.3050    -1.3040    -1.9040 hc         1 H7J       0.070700
     49 H51          3.2350     0.7340     1.8300 hc         1 H7J       0.063700
     50 H52          2.6080     1.6220     0.4540 hc         1 H7J       0.063700
     51 H7           5.5850     1.1840     1.1730 ha         1 H7J       0.170000
     52 H8           4.1440     3.3190    -0.5340 ha         1 H7J       0.175000
     53 H91          6.2360     4.5470     0.2900 hc         1 H7J       0.043700
     54 H92          7.0910     3.0000     0.4030 hc         1 H7J       0.043700
     55 H93          6.6010     3.6270    -1.1790 hc         1 H7J       0.043700
@<TRIPOS>BOND
     1     1     2 2   
     2     2     3 1   
     3     2     9 1   
     4     3     4 ar  
     5     3     8 ar  
     6     4     5 ar  
     7     4    28 1   
     8     5     6 ar  
     9     5    29 1   
    10     6     7 ar  
    11     6    30 1   
    12     7     8 ar  
    13     7    31 1   
    14     8    32 1   
    15     9    10 1   
    16     9    33 1   
    17    10    11 1   
    18    10    12 1   
    19    10    15 1   
    20    11    34 1   
    21    11    35 1   
    22    11    36 1   
    23    12    13 1   
    24    12    14 1   
    25    12    37 1   
    26    13    38 1   
    27    13    39 1   
    28    13    40 1   
    29    14    41 1   
    30    14    42 1   
    31    14    43 1   
    32    15    16 1   
    33    15    18 2   
    34    16    17 2   
    35    17    19 1   
    36    18    19 1   
    37    18    44 1   
    38    19    20 1   
    39    20    21 1   
    40    20    24 1   
    41    20    45 1   
    42    21    22 1   
    43    21    23 2   
    44    22    46 1   
    45    22    47 1   
    46    22    48 1   
    47    24    25 1   
    48    24    49 1   
    49    24    50 1   
    50    25    26 2   
    51    25    51 1   
    52    26    27 1   
    53    26    52 1   
    54    27    53 1   
    55    27    54 1   
    56    27    55 1   
@<TRIPOS>SUBSTRUCTURE
     1 H7J         1 TEMP              0 ****  ****    0 ROOT
