@<TRIPOS>MOLECULE
H7J
   55    56     1     0     0
SMALL
bcc


@<TRIPOS>ATOM
      1 O25         -3.7070    -1.1500     1.5860 o          1 H7J      -0.596100
      2 C18         -3.0290    -0.3630     0.9430 c          1 H7J       0.683700
      3 C19         -3.5100     1.0360     0.7060 ca         1 H7J      -0.153600
      4 C24         -4.3350     1.6150     1.6700 ca         1 H7J      -0.093000
      5 C23         -4.8210     2.9010     1.4960 ca         1 H7J      -0.136500
      6 C22         -4.5100     3.6150     0.3460 ca         1 H7J      -0.108000
      7 C21         -3.7100     3.0370    -0.6300 ca         1 H7J      -0.136500
      8 C20         -3.2090     1.7560    -0.4490 ca         1 H7J      -0.093000
      9 N17         -1.8160    -0.6460     0.4280 ns         1 H7J      -0.576900
     10 C14         -1.1700    -1.9630     0.3560 c3         1 H7J       0.132100
     11 C16         -1.1660    -2.6610     1.7220 c3         1 H7J      -0.089100
     12 C15         -1.9020    -2.8130    -0.7230 c3         1 H7J      -0.063700
     13 C27         -1.7460    -2.2270    -2.1230 c3         1 H7J      -0.085600
     14 C26         -1.5400    -4.2960    -0.7270 c3         1 H7J      -0.085600
     15 C12          0.2690    -1.6750     0.0070 cc         1 H7J       0.260600
     16 N11          1.1090    -2.5980    -0.5090 nc         1 H7J      -0.350000
     17 N10          2.2790    -2.0850    -0.6550 nd         1 H7J      -0.201800
     18 C13          0.9940    -0.5230     0.1990 cd         1 H7J      -0.246600
     19 N            2.2300    -0.8350    -0.2330 na         1 H7J       0.103400
     20 C4           3.3920     0.0290    -0.3140 c3         1 H7J      -0.051000
     21 C2           3.1080     1.0960    -1.3830 c          1 H7J       0.562100
     22 C            2.7150     0.5780    -2.7370 c3         1 H7J      -0.201100
     23 O            3.1820     2.2690    -1.1220 o          1 H7J      -0.491100
     24 C5           3.7920     0.5930     1.0470 c3         1 H7J      -0.037200
     25 C7           5.2070     1.0830     1.0440 c2         1 H7J      -0.198200
     26 C8           5.5740     2.3500     1.2030 c2         1 H7J      -0.129200
     27 C9           6.9860     2.8350     1.2270 c3         1 H7J      -0.062900
     28 H24         -4.5890     1.0610     2.5630 ha         1 H7J       0.139500
     29 H23         -5.4490     3.3450     2.2570 ha         1 H7J       0.135000
     30 H22         -4.8950     4.6170     0.2060 ha         1 H7J       0.133000
     31 H21         -3.4760     3.5810    -1.5350 ha         1 H7J       0.135000
     32 H20         -2.6120     1.3200    -1.2400 ha         1 H7J       0.139500
     33 HN17        -1.3870     0.0770    -0.1240 hn         1 H7J       0.307500
     34 H161        -0.8210    -1.9750     2.4950 hc         1 H7J       0.053033
     35 H162        -2.1490    -3.0340     1.9980 hc         1 H7J       0.053033
     36 H163        -0.4780    -3.5050     1.6970 hc         1 H7J       0.053033
     37 H15         -2.9600    -2.7480    -0.4480 hc         1 H7J       0.061700
     38 H271        -0.7300    -2.3520    -2.4980 hc         1 H7J       0.036367
     39 H272        -2.4140    -2.7360    -2.8200 hc         1 H7J       0.036367
     40 H273        -1.9910    -1.1650    -2.1670 hc         1 H7J       0.036367
     41 H261        -2.1430    -4.8070    -1.4800 hc         1 H7J       0.036367
     42 H262        -0.4920    -4.4590    -0.9710 hc         1 H7J       0.036367
     43 H263        -1.7500    -4.7750     0.2290 hc         1 H7J       0.036367
     44 H13          0.7470     0.4450     0.6030 h4         1 H7J       0.192000
     45 H4           4.1950    -0.6080    -0.6980 h1         1 H7J       0.106700
     46 H1           1.6630     0.2830    -2.7300 hc         1 H7J       0.070700
     47 H2           2.8430     1.3500    -3.4920 hc         1 H7J       0.070700
     48 H3           3.2910    -0.3040    -3.0130 hc         1 H7J       0.070700
     49 H51          3.6950    -0.2180     1.7750 hc         1 H7J       0.063700
     50 H52          3.1070     1.3850     1.3560 hc         1 H7J       0.063700
     51 H7           5.9710     0.3200     0.9090 ha         1 H7J       0.120000
     52 H8           4.8050     3.1080     1.3270 ha         1 H7J       0.125000
     53 H91          7.2180     3.3170     2.1790 hc         1 H7J       0.043700
     54 H92          7.6990     2.0240     1.0770 hc         1 H7J       0.043700
     55 H93          7.1570     3.5850     0.4520 hc         1 H7J       0.043700
@<TRIPOS>BOND
     1     1     2 2   
     2     2     3 1   
     3     2     9 1   
     4     3     4 ar  
     5     3     8 ar  
     6     4     5 ar  
     7     4    28 1   
     8     5     6 ar  
     9     5    29 1   
    10     6     7 ar  
    11     6    30 1   
    12     7     8 ar  
    13     7    31 1   
    14     8    32 1   
    15     9    10 1   
    16     9    33 1   
    17    10    11 1   
    18    10    12 1   
    19    10    15 1   
    20    11    34 1   
    21    11    35 1   
    22    11    36 1   
    23    12    13 1   
    24    12    14 1   
    25    12    37 1   
    26    13    38 1   
    27    13    39 1   
    28    13    40 1   
    29    14    41 1   
    30    14    42 1   
    31    14    43 1   
    32    15    16 1   
    33    15    18 2   
    34    16    17 2   
    35    17    19 1   
    36    18    19 1   
    37    18    44 1   
    38    19    20 1   
    39    20    21 1   
    40    20    24 1   
    41    20    45 1   
    42    21    22 1   
    43    21    23 2   
    44    22    46 1   
    45    22    47 1   
    46    22    48 1   
    47    24    25 1   
    48    24    49 1   
    49    24    50 1   
    50    25    26 2   
    51    25    51 1   
    52    26    27 1   
    53    26    52 1   
    54    27    53 1   
    55    27    54 1   
    56    27    55 1   
@<TRIPOS>SUBSTRUCTURE
     1 H7J         1 TEMP              0 ****  ****    0 ROOT
