@<TRIPOS>MOLECULE
H7K
   55    59     1     0     0
SMALL
bcc


@<TRIPOS>ATOM
      1 O3           7.7210    -2.2380     0.3470 o          1 H7K      -0.523000
      2 C21          6.5770    -1.8530     0.3230 c          1 H7K       0.580600
      3 O4           5.5190    -2.5940     0.5990 os         1 H7K      -0.397900
      4 C22          5.7520    -3.9580     0.9550 c3         1 H7K       0.127700
      5 C18          6.2210    -0.4820    -0.0280 cc         1 H7K       0.177200
      6 O2           4.9240    -0.1050    -0.0450 os         1 H7K      -0.275800
      7 C19          7.0170     0.5690    -0.3670 cd         1 H7K      -0.177300
      8 C20          6.1510     1.6600    -0.6070 cd         1 H7K      -0.282300
      9 C17          4.8860     1.1880    -0.3960 cc         1 H7K       0.348200
     10 C16          3.5800     1.7820    -0.4650 cc         1 H7K      -0.129800
     11 N3           3.3680     3.0830    -0.8030 na         1 H7K      -0.001600
     12 N2           2.0840     3.4370    -0.8010 nc         1 H7K      -0.467800
     13 C15          1.4590     2.3300    -0.4510 cd         1 H7K       0.351800
     14 C11          0.0900     1.8970    -0.2220 ca         1 H7K      -0.122500
     15 C10         -1.1320     2.5470    -0.3050 ca         1 H7K      -0.094000
     16 C9          -2.2890     1.8370    -0.0140 ca         1 H7K      -0.112000
     17 C14          2.3320     1.2580    -0.2260 cd         1 H7K      -0.226600
     18 C13          1.5830     0.0290     0.1650 c5         1 H7K       0.054200
     19 C12          0.1540     0.5430     0.1450 ca         1 H7K      -0.085300
     20 C23         -1.0060    -0.1520     0.4280 ca         1 H7K      -0.120000
     21 C8          -2.2420     0.4930     0.3580 ca         1 H7K      -0.080300
     22 C7          -3.5000    -0.2550     0.7240 c3         1 H7K       0.212100
     23 N1          -4.6330     0.1640    -0.0710 n7         1 H7K      -0.816200
     24 C4          -5.9230    -0.3280     0.3880 c6         1 H7K       0.176500
     25 C3          -6.0770    -1.8520     0.3590 c6         1 H7K      -0.086400
     26 C2          -7.4650    -2.2870     0.8200 c6         1 H7K      -0.086900
     27 C5          -7.0320     0.3330    -0.4250 c6         1 H7K      -0.086400
     28 C6          -8.4160    -0.1130     0.0350 c6         1 H7K      -0.086900
     29 C1          -8.5770    -1.6300     0.0150 c6         1 H7K       0.148100
     30 O1          -8.5170    -2.1500    -1.3020 oh         1 H7K      -0.598800
     31 H23          6.3880    -4.0350     1.8360 h1         1 H7K       0.052033
     32 H24          4.7760    -4.3780     1.1760 h1         1 H7K       0.052033
     33 H25          6.2060    -4.5100     0.1330 h1         1 H7K       0.052033
     34 H20          8.0930     0.5620    -0.4350 ha         1 H7K       0.178000
     35 H21          6.4310     2.6600    -0.8960 ha         1 H7K       0.163000
     36 H3           4.0650     3.7680    -1.0490 hn         1 H7K       0.326700
     37 H17         -1.1890     3.5900    -0.5910 ha         1 H7K       0.143000
     38 H16         -3.2510     2.3280    -0.0860 ha         1 H7K       0.150000
     39 H18          1.7230    -0.7970    -0.5370 hc         1 H7K       0.073700
     40 H19          1.8630    -0.3470     1.1530 hc         1 H7K       0.073700
     41 H22         -0.9630    -1.2020     0.7000 ha         1 H7K       0.130000
     42 H15         -3.2920    -1.3340     0.6780 h1         1 H7K       0.036200
     43 H14         -3.7380    -0.0450     1.7730 h1         1 H7K       0.036200
     44 H13         -4.4920    -0.1150    -1.0370 hn         1 H7K       0.359800
     45 H2          -6.0300    -0.0010     1.4320 h1         1 H7K       0.052700
     46 H8          -5.8860    -2.2090    -0.6580 hc         1 H7K       0.047950
     47 H7          -5.3240    -2.3200     0.9990 hc         1 H7K       0.047950
     48 H6          -7.5610    -3.3760     0.7710 hc         1 H7K       0.045450
     49 H5          -7.6020    -2.0150     1.8710 hc         1 H7K       0.045450
     50 H9          -6.9420     1.4190    -0.3430 hc         1 H7K       0.047950
     51 H10         -6.8970     0.0890    -1.4840 hc         1 H7K       0.047950
     52 H12         -8.5940     0.2370     1.0560 hc         1 H7K       0.045450
     53 H11         -9.1900     0.3540    -0.5830 hc         1 H7K       0.045450
     54 H1          -9.5430    -1.8850     0.4750 h1         1 H7K       0.029700
     55 H4          -9.1460    -1.6660    -1.8450 ho         1 H7K       0.400000
@<TRIPOS>BOND
     1     1     2 2   
     2     2     3 1   
     3     2     5 1   
     4     3     4 1   
     5     4    31 1   
     6     4    32 1   
     7     4    33 1   
     8     5     6 1   
     9     5     7 2   
    10     6     9 1   
    11     7     8 1   
    12     7    34 1   
    13     8     9 2   
    14     8    35 1   
    15     9    10 1   
    16    10    11 1   
    17    10    17 2   
    18    11    12 1   
    19    11    36 1   
    20    12    13 2   
    21    13    14 1   
    22    13    17 1   
    23    14    15 ar  
    24    14    19 ar  
    25    15    16 ar  
    26    15    37 1   
    27    16    21 ar  
    28    16    38 1   
    29    17    18 1   
    30    18    19 1   
    31    18    39 1   
    32    18    40 1   
    33    19    20 ar  
    34    20    21 ar  
    35    20    41 1   
    36    21    22 1   
    37    22    23 1   
    38    22    42 1   
    39    22    43 1   
    40    23    24 1   
    41    23    44 1   
    42    24    25 1   
    43    24    27 1   
    44    24    45 1   
    45    25    26 1   
    46    25    46 1   
    47    25    47 1   
    48    26    29 1   
    49    26    48 1   
    50    26    49 1   
    51    27    28 1   
    52    27    50 1   
    53    27    51 1   
    54    28    29 1   
    55    28    52 1   
    56    28    53 1   
    57    29    30 1   
    58    29    54 1   
    59    30    55 1   
@<TRIPOS>SUBSTRUCTURE
     1 H7K         1 TEMP              0 ****  ****    0 ROOT
