@<TRIPOS>MOLECULE
H7K
   55    59     1     0     0
SMALL
No Charge or Current Charge


@<TRIPOS>ATOM
      1 O3           7.2200    -2.7340    -0.3000 o          1 H7K      -0.474000
      2 C21          6.0870    -2.2900    -0.1480 c          1 H7K       0.531600
      3 O4           5.0220    -3.0730     0.2300 os         1 H7K      -0.421100
      4 C22          5.2520    -4.4760     0.4580 c3         1 H7K       0.150900
      5 C18          5.7360    -0.8620    -0.3550 cc         1 H7K       0.067500
      6 O2           4.4630    -0.3540    -0.1870 os         1 H7K      -0.187000
      7 C19          6.5960     0.1390    -0.7330 cd         1 H7K      -0.094000
      8 C20          5.8360     1.3280    -0.8070 cd         1 H7K      -0.199000
      9 C17          4.5550     0.9870    -0.4700 cc         1 H7K       0.238500
     10 C16          3.4270     1.8720    -0.4060 cc         1 H7K      -0.180500
     11 N3           3.3970     3.2580    -0.6720 na         1 H7K      -0.001200
     12 N2           2.1150     3.8290    -0.5140 nc         1 H7K      -0.467800
     13 C15          1.4340     2.7600    -0.1600 cd         1 H7K       0.286500
     14 C11          0.0770     2.4500     0.1860 ca         1 H7K      -0.122500
     15 C10         -1.0570     3.2670     0.2630 ca         1 H7K      -0.076000
     16 C9          -2.2730     2.6630     0.6370 ca         1 H7K      -0.094000
     17 C14          2.1380     1.6050    -0.0820 cd         1 H7K      -0.161300
     18 C13          1.4220     0.3360     0.3180 c5         1 H7K       0.054200
     19 C12          0.0460     1.0670     0.4640 ca         1 H7K      -0.085300
     20 C23         -1.1720     0.4770     0.8360 ca         1 H7K      -0.102000
     21 C8          -2.3370     1.2760     0.9240 ca         1 H7K      -0.080300
     22 C7          -3.6630     0.6470     1.3310 c3         1 H7K       0.212100
     23 N1          -4.4810     0.3540     0.1390 n7         1 H7K      -0.871400
     24 C4          -5.8240    -0.2250     0.3460 c6         1 H7K       0.176500
     25 C3          -5.7480    -1.6930     0.8540 c6         1 H7K      -0.086400
     26 C2          -7.1640    -2.3090     1.0200 c6         1 H7K      -0.086900
     27 C5          -6.6340    -0.1530    -0.9740 c6         1 H7K      -0.086400
     28 C6          -8.0510    -0.7650    -0.8060 c6         1 H7K      -0.086900
     29 C1          -8.0020    -2.2250    -0.2830 c6         1 H7K       0.171300
     30 O1          -7.4610    -3.0990    -1.2810 oh         1 H7K      -0.661000
     31 H23          5.9850    -4.6280     1.2610 h1         1 H7K       0.052033
     32 H24          4.3190    -4.9730     0.7530 h1         1 H7K       0.052033
     33 H25          5.6240    -4.9650    -0.4510 h1         1 H7K       0.052033
     34 H20          7.6570     0.0310    -0.9360 ha         1 H7K       0.160000
     35 H21          6.1970     2.3140    -1.0770 ha         1 H7K       0.145000
     36 H3           4.1920     3.8320    -0.9520 hn         1 H7K       0.377000
     37 H17         -0.9990     4.3300     0.0410 ha         1 H7K       0.125000
     38 H16         -3.1740     3.2700     0.7030 ha         1 H7K       0.132000
     39 H18          1.4240    -0.4330    -0.4620 hc         1 H7K       0.073700
     40 H19          1.7850    -0.0960     1.2570 hc         1 H7K       0.073700
     41 H22         -1.2160    -0.5880     1.0530 ha         1 H7K       0.112000
     42 H15         -3.4600    -0.2700     1.9000 h1         1 H7K       0.036200
     43 H14         -4.1950     1.3360     2.0010 h1         1 H7K       0.036200
     44 H13         -3.9430    -0.2670    -0.4740 hn         1 H7K       0.415000
     45 H2          -6.3540     0.3780     1.1000 h1         1 H7K       0.052700
     46 H8          -5.1580    -2.3020     0.1550 hc         1 H7K       0.047950
     47 H7          -5.2280    -1.7360     1.8200 hc         1 H7K       0.047950
     48 H6          -7.0810    -3.3560     1.3450 hc         1 H7K       0.045450
     49 H5          -7.6960    -1.7820     1.8240 hc         1 H7K       0.045450
     50 H9          -6.7250     0.8940    -1.2960 hc         1 H7K       0.047950
     51 H10         -6.0960    -0.6780    -1.7750 hc         1 H7K       0.047950
     52 H12         -8.6290    -0.1500    -0.1020 hc         1 H7K       0.045450
     53 H11         -8.5940    -0.7220    -1.7610 hc         1 H7K       0.045450
     54 H1          -9.0300    -2.5410    -0.0500 h1         1 H7K       0.029700
     55 H4          -8.0490    -3.0290    -2.0640 ho         1 H7K       0.439000
@<TRIPOS>BOND
     1     1     2 2   
     2     2     3 1   
     3     2     5 1   
     4     3     4 1   
     5     4    31 1   
     6     4    32 1   
     7     4    33 1   
     8     5     6 1   
     9     5     7 2   
    10     6     9 1   
    11     7     8 1   
    12     7    34 1   
    13     8     9 2   
    14     8    35 1   
    15     9    10 1   
    16    10    11 1   
    17    10    17 2   
    18    11    12 1   
    19    11    36 1   
    20    12    13 2   
    21    13    14 1   
    22    13    17 1   
    23    14    15 ar  
    24    14    19 ar  
    25    15    16 ar  
    26    15    37 1   
    27    16    21 ar  
    28    16    38 1   
    29    17    18 1   
    30    18    19 1   
    31    18    39 1   
    32    18    40 1   
    33    19    20 ar  
    34    20    21 ar  
    35    20    41 1   
    36    21    22 1   
    37    22    23 1   
    38    22    42 1   
    39    22    43 1   
    40    23    24 1   
    41    23    44 1   
    42    24    25 1   
    43    24    27 1   
    44    24    45 1   
    45    25    26 1   
    46    25    46 1   
    47    25    47 1   
    48    26    29 1   
    49    26    48 1   
    50    26    49 1   
    51    27    28 1   
    52    27    50 1   
    53    27    51 1   
    54    28    29 1   
    55    28    52 1   
    56    28    53 1   
    57    29    30 1   
    58    29    54 1   
    59    30    55 1   
@<TRIPOS>SUBSTRUCTURE
     1 H7K         1 TEMP              0 ****  ****    0 ROOT
