@<TRIPOS>MOLECULE
H7L
   48    51     1     0     0
SMALL
No Charge or Current Charge


@<TRIPOS>ATOM
      1 C10         82.5680   142.1460    17.3100 ca         1 H7L      -0.095000
      2 C13         84.4630   140.5540    14.4890 ca         1 H7L       0.154100
      3 C22         80.0110   140.8640    17.3100 c3         1 H7L       0.076600
      4 C26         80.1580   142.0420    14.9170 cy         1 H7L       0.134800
      5 C01         81.3910   144.9990    19.4600 ca         1 H7L       0.159100
      6 C02         82.0550   146.0640    18.8400 ca         1 H7L      -0.122000
      7 C03         82.8800   145.8320    17.7290 ca         1 H7L      -0.051000
      8 C04         83.0580   144.5340    17.2140 ca         1 H7L       0.244000
      9 C05         82.3870   143.4500    17.8360 ca         1 H7L       0.007000
     10 C06         81.5570   143.6910    18.9610 ca         1 H7L      -0.221000
     11 C08         84.0510   143.1290    15.6190 ca         1 H7L       0.259000
     12 C09         83.4180   141.9830    16.1840 ca         1 H7L       0.008000
     13 C11         84.8910   142.9590    14.4860 ca         1 H7L      -0.028300
     14 C12         85.0860   141.6770    13.9380 ca         1 H7L      -0.107000
     15 C14         83.6310   140.7050    15.6120 ca         1 H7L      -0.214000
     16 C16         84.0940   138.1130    14.3670 c3         1 H7L       0.145900
     17 C18         79.8600   144.2700    21.2570 c3         1 H7L       0.144900
     18 C19         85.6110   144.1350    13.8220 c3         1 H7L       0.215900
     19 C23         79.9370   140.7490    15.7740 cy         1 H7L      -0.093700
     20 C25         78.5200   140.7390    15.1090 cy         1 H7L       0.134800
     21 N07         83.8610   144.3650    16.1420 nb         1 H7L      -0.625000
     22 N24         78.6770   142.2240    15.0300 n6         1 H7L      -0.845400
     23 O15         84.6980   139.3310    13.8940 os         1 H7L      -0.336100
     24 O17         80.5930   145.2860    20.5490 os         1 H7L      -0.336100
     25 O20         85.0460   144.4140    12.5320 oh         1 H7L      -0.648000
     26 S21         81.7100   140.7360    18.0320 ss         1 H7L      -0.233000
     27 H1          79.5630   141.8180    17.6170 h1         1 H7L       0.077200
     28 H2          79.4030   140.0560    17.7370 h1         1 H7L       0.077200
     29 H4          80.7790   142.8170    15.3820 h1         1 H7L       0.050450
     30 H5          81.9300   147.0740    19.2210 ha         1 H7L       0.132000
     31 H6          83.3900   146.6670    17.2570 ha         1 H7L       0.134000
     32 H7          81.0480   142.8680    19.4460 ha         1 H7L       0.135000
     33 H8          85.7270   141.5530    13.0690 ha         1 H7L       0.132000
     34 H9          83.1540   139.8320    16.0390 ha         1 H7L       0.140000
     35 H10         84.4120   137.2660    13.7470 h1         1 H7L       0.043700
     36 H11         84.3930   137.9070    15.4030 h1         1 H7L       0.043700
     37 H12         83.0000   138.1760    14.3210 h1         1 H7L       0.043700
     38 H13         79.2920   144.7160    22.0830 h1         1 H7L       0.044033
     39 H14         79.1490   143.7650    20.5900 h1         1 H7L       0.044033
     40 H15         80.5410   143.5200    21.6800 h1         1 H7L       0.044033
     41 H16         86.6730   143.8730    13.7140 h1         1 H7L       0.031700
     42 H17         85.5750   145.0330    14.4520 h1         1 H7L       0.031700
     43 H18         80.5610   139.9010    15.4740 hc         1 H7L       0.065700
     44 H19         77.7100   140.3640    15.7470 h1         1 H7L       0.050450
     45 H20         78.5020   140.2190    14.1420 h1         1 H7L       0.050450
     46 H21         78.1920   142.7030    14.2600 hn         1 H7L       0.408000
     47 H23         85.5390   145.1810    12.1680 ho         1 H7L       0.442000
     48 H3          80.5290   141.8280    13.9060 h1         1 H7L       0.050450
@<TRIPOS>BOND
     1     1     9 ar  
     2     1    12 ar  
     3     1    26 1   
     4     2    14 ar  
     5     2    15 ar  
     6     2    23 1   
     7     3    19 1   
     8     3    26 1   
     9     3    27 1   
    10     3    28 1   
    11     4    19 1   
    12     4    22 1   
    13     4    29 1   
    14     4    48 1   
    15     5     6 ar  
    16     5    10 ar  
    17     5    24 1   
    18     6     7 ar  
    19     6    30 1   
    20     7     8 ar  
    21     7    31 1   
    22     8     9 ar  
    23     8    21 ar  
    24     9    10 ar  
    25    10    32 1   
    26    11    12 ar  
    27    11    13 ar  
    28    11    21 ar  
    29    12    15 ar  
    30    13    14 ar  
    31    13    18 1   
    32    14    33 1   
    33    15    34 1   
    34    16    23 1   
    35    16    35 1   
    36    16    36 1   
    37    16    37 1   
    38    17    24 1   
    39    17    38 1   
    40    17    39 1   
    41    17    40 1   
    42    18    25 1   
    43    18    41 1   
    44    18    42 1   
    45    19    20 1   
    46    19    43 1   
    47    20    22 1   
    48    20    44 1   
    49    20    45 1   
    50    22    46 1   
    51    25    47 1   
@<TRIPOS>SUBSTRUCTURE
     1 H7L         1 TEMP              0 ****  ****    0 ROOT
