@<TRIPOS>MOLECULE
H7L
   48    51     1     0     0
SMALL
bcc


@<TRIPOS>ATOM
      1 C10         82.5460   142.1690    17.2310 ca         1 H7L       0.031900
      2 C13         84.4660   140.6200    14.4530 ca         1 H7L       0.154100
      3 C22         79.9940   140.9820    17.3430 c3         1 H7L       0.028700
      4 C26         80.1470   141.5100    14.8110 cy         1 H7L       0.134800
      5 C01         81.4220   145.0020    19.3700 ca         1 H7L       0.159100
      6 C02         82.1470   146.0720    18.7650 ca         1 H7L      -0.140000
      7 C03         82.9760   145.8310    17.7210 ca         1 H7L      -0.134300
      8 C04         83.1310   144.5150    17.1950 ca         1 H7L       0.374600
      9 C05         82.3920   143.4470    17.7900 ca         1 H7L      -0.058300
     10 C06         81.5470   143.7250    18.8980 ca         1 H7L      -0.239000
     11 C08         84.1160   143.1340    15.6560 ca         1 H7L       0.389600
     12 C09         83.4140   141.9850    16.1450 ca         1 H7L      -0.057300
     13 C11         85.0330   142.9790    14.5600 ca         1 H7L      -0.093600
     14 C12         85.1900   141.7580    13.9900 ca         1 H7L      -0.125000
     15 C14         83.6020   140.7300    15.5050 ca         1 H7L      -0.232000
     16 C16         84.0020   138.3240    14.1270 c3         1 H7L       0.122700
     17 C18         79.8910   144.3720    21.0600 c3         1 H7L       0.121700
     18 C19         85.7760   144.1680    14.0260 c3         1 H7L       0.192700
     19 C23         79.7780   140.5080    15.9230 cy         1 H7L      -0.093700
     20 C25         78.3250   140.6970    15.4390 cy         1 H7L       0.134800
     21 N07         83.9640   144.3420    16.1760 nb         1 H7L      -0.625000
     22 N24         78.7360   141.9120    14.7230 n6         1 H7L      -0.790200
     23 O15         84.7100   139.4940    13.7690 os         1 H7L      -0.312900
     24 O17         80.6460   145.3680    20.3990 os         1 H7L      -0.312900
     25 O20         84.8940   144.9250    13.2230 oh         1 H7L      -0.585800
     26 S21         81.7060   140.7820    17.9470 ss         1 H7L      -0.312000
     27 H1          79.6820   142.0200    17.4790 h1         1 H7L       0.077200
     28 H2          79.4040   140.3750    18.0330 h1         1 H7L       0.077200
     29 H4          80.8350   142.3180    15.0680 h1         1 H7L       0.050450
     30 H5          82.0280   147.0730    19.1600 ha         1 H7L       0.150000
     31 H6          83.5380   146.6330    17.2610 ha         1 H7L       0.152000
     32 H7          81.0230   142.9010    19.3610 ha         1 H7L       0.153000
     33 H8          85.8730   141.6290    13.1590 ha         1 H7L       0.150000
     34 H9          83.0480   139.8790    15.8740 ha         1 H7L       0.158000
     35 H10         84.3280   137.5430    13.4440 h1         1 H7L       0.043700
     36 H11         84.2230   138.0130    15.1520 h1         1 H7L       0.043700
     37 H12         82.9220   138.4580    14.0250 h1         1 H7L       0.043700
     38 H13         79.3380   144.8750    21.8490 h1         1 H7L       0.044033
     39 H14         79.1830   143.8860    20.3840 h1         1 H7L       0.044033
     40 H15         80.5320   143.6070    21.5080 h1         1 H7L       0.044033
     41 H16         86.6380   143.8130    13.4480 h1         1 H7L       0.031700
     42 H17         86.1670   144.7580    14.8610 h1         1 H7L       0.031700
     43 H18         80.1810   139.5030    15.8000 hc         1 H7L       0.065700
     44 H19         77.5640   140.8530    16.2100 h1         1 H7L       0.050450
     45 H20         77.9980   139.8750    14.7960 h1         1 H7L       0.050450
     46 H21         78.3750   141.9930    13.7820 hn         1 H7L       0.352800
     47 H23         85.3100   145.7740    13.0470 ho         1 H7L       0.403000
     48 H3          80.5310   141.0010    13.9210 h1         1 H7L       0.050450
@<TRIPOS>BOND
     1     1     9 ar  
     2     1    12 ar  
     3     1    26 1   
     4     2    14 ar  
     5     2    15 ar  
     6     2    23 1   
     7     3    19 1   
     8     3    26 1   
     9     3    27 1   
    10     3    28 1   
    11     4    19 1   
    12     4    22 1   
    13     4    29 1   
    14     4    48 1   
    15     5     6 ar  
    16     5    10 ar  
    17     5    24 1   
    18     6     7 ar  
    19     6    30 1   
    20     7     8 ar  
    21     7    31 1   
    22     8     9 ar  
    23     8    21 ar  
    24     9    10 ar  
    25    10    32 1   
    26    11    12 ar  
    27    11    13 ar  
    28    11    21 ar  
    29    12    15 ar  
    30    13    14 ar  
    31    13    18 1   
    32    14    33 1   
    33    15    34 1   
    34    16    23 1   
    35    16    35 1   
    36    16    36 1   
    37    16    37 1   
    38    17    24 1   
    39    17    38 1   
    40    17    39 1   
    41    17    40 1   
    42    18    25 1   
    43    18    41 1   
    44    18    42 1   
    45    19    20 1   
    46    19    43 1   
    47    20    22 1   
    48    20    44 1   
    49    20    45 1   
    50    22    46 1   
    51    25    47 1   
@<TRIPOS>SUBSTRUCTURE
     1 H7L         1 TEMP              0 ****  ****    0 ROOT
