@<TRIPOS>MOLECULE
H7M
   38    40     1     0     0
SMALL
No Charge or Current Charge


@<TRIPOS>ATOM
      1 C10         19.3480     6.7830   -29.3320 ca         1 H7M      -0.092000
      2 C13         20.0170     5.7610   -26.7900 ca         1 H7M       0.241000
      3 C20         19.3150     9.7300   -23.6750 ca         1 H7M      -0.156000
      4 C21         17.9860     9.4460   -23.3220 ca         1 H7M      -0.008000
      5 C22         17.5510     8.1120   -23.2510 ca         1 H7M       0.005000
      6 C24         18.4470     7.0580   -23.5280 ca         1 H7M       0.228100
      7 C03         24.4460     7.8860   -29.3690 cc         1 H7M       0.384400
      8 C06         23.4630     6.1080   -28.6060 cc         1 H7M       0.420800
      9 C08         20.9790     5.7380   -27.8320 ca         1 H7M      -0.095000
     10 C09         20.6200     6.2320   -29.1100 ca         1 H7M      -0.102000
     11 C11         18.4080     6.8190   -28.2940 ca         1 H7M      -0.102000
     12 C12         18.7390     6.2960   -27.0350 ca         1 H7M      -0.119000
     13 C18         19.7810     7.3440   -23.8740 ca         1 H7M      -0.339500
     14 C19         20.2120     8.6860   -23.9530 ca         1 H7M       0.029000
     15 N02         23.5650     7.4660   -28.3980 na         1 H7M      -0.354000
     16 N04         24.8830     6.8390   -30.0610 nd         1 H7M      -0.369000
     17 N05         24.2900     5.7060   -29.5500 nd         1 H7M      -0.312000
     18 N14         20.2770     5.2110   -25.5360 nu         1 H7M      -0.877100
     19 O16         20.9000     5.0260   -23.1660 o          1 H7M      -0.534000
     20 O17         22.2020     6.5860   -24.7230 o          1 H7M      -0.534000
     21 S07         22.6020     4.9870   -27.5420 ss         1 H7M       0.001700
     22 S15         20.9410     6.0290   -24.2310 sy         1 H7M       1.191600
     23 Cl2         15.8720     7.7760   -22.8220 cl         1 H7M      -0.198000
     24 H1          19.0860     7.1670   -30.3160 ha         1 H7M       0.122000
     25 H2          19.6510    10.7630   -23.7340 ha         1 H7M       0.131000
     26 H3          17.2920    10.2560   -23.1090 ha         1 H7M       0.136000
     27 H4          23.4530     8.1040   -26.3880 h1         1 H7M       0.070367
     28 H5          23.0820     9.3630   -27.5940 h1         1 H7M       0.070367
     29 H6          21.8850     8.0910   -27.2520 h1         1 H7M       0.070367
     30 H7          24.7370     8.9210   -29.5010 h5         1 H7M       0.063100
     31 H8          21.3100     6.1820   -29.9490 ha         1 H7M       0.135000
     32 H9          17.4180     7.2360   -28.4690 ha         1 H7M       0.122000
     33 H10         17.9910     6.3070   -26.2480 ha         1 H7M       0.115000
     34 H11         21.2390     8.9280   -24.2240 ha         1 H7M       0.147000
     35 H12         19.4410     4.8690   -25.0790 hn         1 H7M       0.500000
     36 H13         17.0700     5.7890   -23.1720 ho         1 H7M       0.500000
     37 O25         18.0000     5.7680   -23.4880 oh         1 H7M      -0.539100
     38 C01         22.9560     8.3010   -27.3460 c3         1 H7M       0.047900
@<TRIPOS>BOND
     1     1    10 ar  
     2     1    11 ar  
     3     1    24 1   
     4     2     9 ar  
     5     2    12 ar  
     6     2    18 1   
     7     3     4 ar  
     8     3    14 ar  
     9     3    25 1   
    10     4     5 ar  
    11     4    26 1   
    12     5     6 ar  
    13     5    23 1   
    14     6    13 ar  
    15     6    37 1   
    16     7    15 1   
    17     7    16 2   
    18     7    30 1   
    19     8    15 1   
    20     8    17 2   
    21     8    21 1   
    22     9    10 ar  
    23     9    21 1   
    24    10    31 1   
    25    11    12 ar  
    26    11    32 1   
    27    12    33 1   
    28    13    14 ar  
    29    13    22 1   
    30    14    34 1   
    31    15    38 1   
    32    16    17 1   
    33    18    22 1   
    34    18    35 1   
    35    19    22 2   
    36    20    22 2   
    37    27    38 1   
    38    28    38 1   
    39    29    38 1   
    40    36    37 1   
@<TRIPOS>SUBSTRUCTURE
     1 H7M         1 TEMP              0 ****  ****    0 ROOT
