@<TRIPOS>MOLECULE
H7M
   38    40     1     0     0
SMALL
abcg2


@<TRIPOS>ATOM
      1 C10         19.3700     7.1260   -29.1600 ca         1 H7M      -0.092000
      2 C13         20.0060     5.9830   -26.7070 ca         1 H7M       0.241000
      3 C20         18.7700     9.7040   -23.5760 ca         1 H7M      -0.156000
      4 C21         17.5390     9.2110   -23.1600 ca         1 H7M      -0.008000
      5 C22         17.3390     7.8430   -23.0660 ca         1 H7M       0.005000
      6 C24         18.3540     6.9340   -23.3740 ca         1 H7M       0.228100
      7 C03         24.7200     7.3450   -29.7150 cc         1 H7M       0.384400
      8 C06         23.5080     5.9000   -28.6680 cc         1 H7M       0.420800
      9 C08         20.9480     5.9740   -27.7420 ca         1 H7M      -0.095000
     10 C09         20.6190     6.5500   -28.9690 ca         1 H7M      -0.102000
     11 C11         18.4260     7.1150   -28.1390 ca         1 H7M      -0.102000
     12 C12         18.7490     6.5420   -26.9160 ca         1 H7M      -0.119000
     13 C18         19.5890     7.4510   -23.7910 ca         1 H7M      -0.339500
     14 C19         19.7920     8.8230   -23.8970 ca         1 H7M       0.029000
     15 N02         23.8920     7.2150   -28.6500 na         1 H7M      -0.354000
     16 N04         24.8610     6.1980   -30.3380 nd         1 H7M      -0.369000
     17 N05         24.0820     5.2760   -29.6750 nd         1 H7M      -0.312000
     18 N14         20.3410     5.3830   -25.4460 nu         1 H7M      -0.877100
     19 O16         21.1650     5.4610   -23.1120 o          1 H7M      -0.534000
     20 O17         21.9770     7.1450   -24.7550 o          1 H7M      -0.534000
     21 S07         22.5010     5.1450   -27.4580 ss         1 H7M       0.001700
     22 S15         20.9070     6.3450   -24.2200 sy         1 H7M       1.191600
     23 CL2         15.7910     7.2120   -22.5670 cl         1 H7M      -0.198000
     24 H1          19.1320     7.5700   -30.1170 ha         1 H7M       0.122000
     25 H2          18.9260    10.7700   -23.6530 ha         1 H7M       0.131000
     26 H3          16.7280     9.8830   -22.9130 ha         1 H7M       0.136000
     27 H4          23.3600     7.8240   -26.7300 h1         1 H7M       0.070367
     28 H5          24.2280     9.0340   -27.7060 h1         1 H7M       0.070367
     29 H6          22.5160     8.6750   -28.0390 h1         1 H7M       0.070367
     30 H7          25.1860     8.2780   -29.9890 h5         1 H7M       0.063100
     31 H8          21.3300     6.5350   -29.7830 ha         1 H7M       0.135000
     32 H9          17.4470     7.5490   -28.2900 ha         1 H7M       0.122000
     33 H10         18.0230     6.5210   -26.1150 ha         1 H7M       0.115000
     34 H11         20.7510     9.1860   -24.2340 ha         1 H7M       0.147000
     35 H12         19.6470     4.7310   -25.0920 hn         1 H7M       0.500000
     36 H13         17.2780     5.3810   -23.0660 ho         1 H7M       0.500000
     37 O25         18.1900     5.5990   -23.3190 oh         1 H7M      -0.539100
     38 C01         23.4700     8.2550   -27.7220 c3         1 H7M       0.047900
@<TRIPOS>BOND
     1     1    10 ar  
     2     1    11 ar  
     3     1    24 1   
     4     2     9 ar  
     5     2    12 ar  
     6     2    18 1   
     7     3     4 ar  
     8     3    14 ar  
     9     3    25 1   
    10     4     5 ar  
    11     4    26 1   
    12     5     6 ar  
    13     5    23 1   
    14     6    13 ar  
    15     6    37 1   
    16     7    15 1   
    17     7    16 2   
    18     7    30 1   
    19     8    15 1   
    20     8    17 2   
    21     8    21 1   
    22     9    10 ar  
    23     9    21 1   
    24    10    31 1   
    25    11    12 ar  
    26    11    32 1   
    27    12    33 1   
    28    13    14 ar  
    29    13    22 1   
    30    14    34 1   
    31    15    38 1   
    32    16    17 1   
    33    18    22 1   
    34    18    35 1   
    35    19    22 2   
    36    20    22 2   
    37    27    38 1   
    38    28    38 1   
    39    29    38 1   
    40    36    37 1   
@<TRIPOS>SUBSTRUCTURE
     1 H7M         1 TEMP              0 ****  ****    0 ROOT
