@<TRIPOS>MOLECULE
H7N
   36    35     1     0     0
SMALL
No Charge or Current Charge


@<TRIPOS>ATOM
      1 C1          -6.3410     0.3790     1.1200 c3         1 H7N      -0.085100
      2 P1          -0.8520    -0.1730    -0.0790 p5         1 H7N       1.403400
      3 C5           0.7460     0.5440    -0.6380 c3         1 H7N      -0.426400
      4 O3          -0.8670    -1.6400    -0.3580 o          1 H7N      -0.831500
      5 C6           1.9910     0.0010     0.1010 c3         1 H7N      -0.042400
      6 C7           3.3090     0.6310    -0.4010 c3         1 H7N      -0.073400
      7 O4          -1.8230     0.6420    -1.0820 os         1 H7N      -0.611400
      8 C8           4.5560     0.0920     0.3330 c3         1 H7N      -0.077400
      9 C9           5.8730     0.7230    -0.1690 c3         1 H7N      -0.076400
     10 C10          7.1180     0.1850     0.5630 c3         1 H7N      -0.086100
     11 C11         -3.2000     0.2860    -1.2810 c3         1 H7N       0.232600
     12 C12         -4.0070     0.4060     0.0350 c3         1 H7N      -0.088400
     13 C13         -5.5290     0.2650    -0.1840 c3         1 H7N      -0.078400
     14 H1          -7.4130     0.2740     0.9130 hc         1 H7N       0.021367
     15 H2          -6.0500    -0.4050     1.8290 hc         1 H7N       0.021367
     16 H3          -6.1780     1.3540     1.5950 hc         1 H7N       0.021367
     17 H4           0.8270     0.3430    -1.7110 hc         1 H7N       0.043700
     18 H5           0.6710     1.6290    -0.5040 hc         1 H7N       0.043700
     19 H7           1.8870     0.1930     1.1770 hc         1 H7N       0.042200
     20 H8           2.0420    -1.0880    -0.0260 hc         1 H7N       0.042200
     21 H9           3.4130     0.4380    -1.4760 hc         1 H7N       0.026700
     22 H10          3.2580     1.7200    -0.2740 hc         1 H7N       0.026700
     23 H11          4.4520     0.2850     1.4090 hc         1 H7N       0.034700
     24 H12          4.6070    -0.9960     0.2060 hc         1 H7N       0.034700
     25 H13          5.9820     0.5310    -1.2440 hc         1 H7N       0.031700
     26 H14          5.8270     1.8110    -0.0410 hc         1 H7N       0.031700
     27 H15          8.0260     0.6610     0.1730 hc         1 H7N       0.024033
     28 H16          7.0560     0.3940     1.6380 hc         1 H7N       0.024033
     29 H17          7.2120    -0.8980     0.4250 hc         1 H7N       0.024033
     30 H18         -3.6420     0.9570    -2.0290 h1         1 H7N       0.016200
     31 H19         -3.2830    -0.7390    -1.6670 h1         1 H7N       0.016200
     32 H20         -3.6860    -0.3700     0.7390 hc         1 H7N       0.039700
     33 H21         -3.8000     1.3790     0.4970 hc         1 H7N       0.039700
     34 H22         -5.7410    -0.7050    -0.6520 hc         1 H7N       0.032700
     35 H23         -5.8700     1.0390    -0.8840 hc         1 H7N       0.032700
     36 O1          -1.0870     0.1670     1.3570 o          1 H7N      -0.831500
@<TRIPOS>BOND
     1     1    13 1   
     2     1    14 1   
     3     1    15 1   
     4     1    16 1   
     5     2     3 1   
     6     2     4 1   
     7     2     7 1   
     8     2    36 1   
     9     3     5 1   
    10     3    17 1   
    11     3    18 1   
    12     5     6 1   
    13     5    19 1   
    14     5    20 1   
    15     6     8 1   
    16     6    21 1   
    17     6    22 1   
    18     7    11 1   
    19     8     9 1   
    20     8    23 1   
    21     8    24 1   
    22     9    10 1   
    23     9    25 1   
    24     9    26 1   
    25    10    27 1   
    26    10    28 1   
    27    10    29 1   
    28    11    12 1   
    29    11    30 1   
    30    11    31 1   
    31    12    13 1   
    32    12    32 1   
    33    12    33 1   
    34    13    34 1   
    35    13    35 1   
@<TRIPOS>SUBSTRUCTURE
     1 H7N         1 TEMP              0 ****  ****    0 ROOT
