@<TRIPOS>MOLECULE
H7N
   36    35     1     0     0
SMALL
bcc


@<TRIPOS>ATOM
      1 C1          -6.6590     1.2400     0.3020 c3         1 H7N      -0.085100
      2 P1          -0.5820    -0.8580    -0.1120 p5         1 H7N       1.245600
      3 C5           0.7700     0.3680    -0.0590 c3         1 H7N      -0.268600
      4 O3          -0.6100    -1.5570    -1.4480 o          1 H7N      -0.831500
      5 C6           2.1410    -0.3050    -0.0270 c3         1 H7N      -0.042400
      6 C7           3.2930     0.6930    -0.0230 c3         1 H7N      -0.073400
      7 O4          -1.8530     0.2050    -0.0370 os         1 H7N      -0.588200
      8 C8           4.6610     0.0250     0.0290 c3         1 H7N      -0.077400
      9 C9           5.8190     1.0160     0.0220 c3         1 H7N      -0.076400
     10 C10          7.1790     0.3340     0.0900 c3         1 H7N      -0.086100
     11 C11         -3.1450    -0.2730    -0.3620 c3         1 H7N       0.209400
     12 C12         -4.1880     0.7000     0.1540 c3         1 H7N      -0.088400
     13 C13         -5.6020     0.2840    -0.2300 c3         1 H7N      -0.078400
     14 H1          -7.6620     0.9360     0.0010 hc         1 H7N       0.021367
     15 H2          -6.6390     1.2820     1.3930 hc         1 H7N       0.021367
     16 H3          -6.4970     2.2540    -0.0680 hc         1 H7N       0.021367
     17 H4           0.7000     1.0220    -0.9330 hc         1 H7N       0.043700
     18 H5           0.6560     1.0080     0.8210 hc         1 H7N       0.043700
     19 H7           2.2110    -0.9440     0.8580 hc         1 H7N       0.042200
     20 H8           2.2420    -0.9690    -0.8910 hc         1 H7N       0.042200
     21 H9           3.2280     1.3240    -0.9160 hc         1 H7N       0.026700
     22 H10          3.1840     1.3680     0.8330 hc         1 H7N       0.026700
     23 H11          4.7260    -0.6000     0.9270 hc         1 H7N       0.034700
     24 H12          4.7650    -0.6590    -0.8210 hc         1 H7N       0.034700
     25 H13          5.7610     1.6320    -0.8810 hc         1 H7N       0.031700
     26 H14          5.7100     1.7040     0.8650 hc         1 H7N       0.031700
     27 H15          7.9940     1.0580     0.0790 hc         1 H7N       0.024033
     28 H16          7.2750    -0.2580     1.0030 hc         1 H7N       0.024033
     29 H17          7.3240    -0.3420    -0.7550 hc         1 H7N       0.024033
     30 H18         -3.2500    -0.3850    -1.4480 h1         1 H7N       0.016200
     31 H19         -3.3280    -1.2620     0.0760 h1         1 H7N       0.016200
     32 H20         -4.1080     0.7740     1.2440 hc         1 H7N       0.039700
     33 H21         -3.9820     1.6990    -0.2440 hc         1 H7N       0.039700
     34 H22         -5.8020    -0.7250     0.1450 hc         1 H7N       0.032700
     35 H23         -5.6800     0.2220    -1.3200 hc         1 H7N       0.032700
     36 O1          -0.5690    -1.6960     1.1430 o          1 H7N      -0.831500
@<TRIPOS>BOND
     1     1    13 1   
     2     1    14 1   
     3     1    15 1   
     4     1    16 1   
     5     2     3 1   
     6     2     4 1   
     7     2     7 1   
     8     2    36 1   
     9     3     5 1   
    10     3    17 1   
    11     3    18 1   
    12     5     6 1   
    13     5    19 1   
    14     5    20 1   
    15     6     8 1   
    16     6    21 1   
    17     6    22 1   
    18     7    11 1   
    19     8     9 1   
    20     8    23 1   
    21     8    24 1   
    22     9    10 1   
    23     9    25 1   
    24     9    26 1   
    25    10    27 1   
    26    10    28 1   
    27    10    29 1   
    28    11    12 1   
    29    11    30 1   
    30    11    31 1   
    31    12    13 1   
    32    12    32 1   
    33    12    33 1   
    34    13    34 1   
    35    13    35 1   
@<TRIPOS>SUBSTRUCTURE
     1 H7N         1 TEMP              0 ****  ****    0 ROOT
