@<TRIPOS>MOLECULE
H7O
   60    64     1     0     0
SMALL
No Charge or Current Charge


@<TRIPOS>ATOM
      1 C10         82.7560   139.5630    15.2200 ca         1 H7O      -0.167000
      2 C13         83.9720   141.7180    13.9190 ca         1 H7O      -0.044000
      3 C15         83.5020   139.3350    14.0560 ca         1 H7O       0.158100
      4 C20         77.5680   140.3670    15.2310 c6         1 H7O      -0.111400
      5 C21         77.3450   140.1490    13.7140 c6         1 H7O       0.148300
      6 C24         79.1140   138.3600    15.2360 c6         1 H7O      -0.111400
      7 C26         84.1790   136.1970    12.1720 ca         1 H7O      -0.092300
      8 C28         82.9080   134.2810    11.3500 ca         1 H7O      -0.111000
      9 C01         79.4570   143.5230    20.9040 c3         1 H7O       0.145900
     10 C03         80.9740   142.7750    18.5320 ca         1 H7O      -0.224000
     11 C04         80.8800   144.1120    18.9720 ca         1 H7O       0.160100
     12 C05         81.5300   145.1220    18.2540 ca         1 H7O      -0.122000
     13 C06         82.2730   144.8080    17.1040 ca         1 H7O      -0.054000
     14 C07         81.7150   142.4510    17.3680 ca         1 H7O       0.011000
     15 C08         82.3780   143.4810    16.6470 ca         1 H7O       0.242000
     16 C11         82.5960   140.8690    15.7410 ca         1 H7O       0.010000
     17 C12         83.2180   141.9630    15.0830 ca         1 H7O       0.235000
     18 C14         84.1150   140.4200    13.4010 ca         1 H7O      -0.174000
     19 C16         81.8170   141.1150    16.9000 ca         1 H7O      -0.097000
     20 C18         79.1880   140.0420    17.2000 c3         1 H7O       0.067600
     21 C19         78.9610   139.8440    15.6730 c6         1 H7O      -0.061700
     22 C23         78.8570   138.1980    13.7180 c6         1 H7O       0.148300
     23 C27         83.0270   135.6660    11.5580 ca         1 H7O      -0.093000
     24 C29         83.9390   133.4170    11.7570 ca         1 H7O      -0.103000
     25 C30         85.0900   133.9400    12.3720 ca         1 H7O      -0.111000
     26 C31         85.2090   135.3260    12.5800 ca         1 H7O      -0.093000
     27 C32         84.3050   137.6980    12.3960 c3         1 H7O       0.214900
     28 N09         83.1040   143.2320    15.5340 nb         1 H7O      -0.624000
     29 N22         77.5190   138.7220    13.3500 n7         1 H7O      -0.843400
     30 O02         80.1690   144.4780    20.0970 os         1 H7O      -0.336100
     31 O25         83.5990   138.0380    13.6010 os         1 H7O      -0.345100
     32 S17         80.9430   139.7690    17.7230 ss         1 H7O      -0.226000
     33 H1          82.3100   138.7040    15.7070 ha         1 H7O       0.148000
     34 H2          84.4490   142.5520    13.4100 ha         1 H7O       0.132000
     35 H3          77.4760   141.4370    15.4620 hc         1 H7O       0.045200
     36 H4          76.7760   139.8560    15.7970 hc         1 H7O       0.045200
     37 H5          78.0600   140.7640    13.1460 h1         1 H7O       0.053950
     38 H6          76.3320   140.4820    13.4380 h1         1 H7O       0.053950
     39 H7          78.4100   137.7290    15.7960 hc         1 H7O       0.045200
     40 H8          80.1170   137.9870    15.4740 hc         1 H7O       0.045200
     41 H9          82.0160   133.8770    10.8760 ha         1 H7O       0.114000
     42 H10         78.9600   144.0290    21.7410 h1         1 H7O       0.044700
     43 H11         78.6870   143.0090    20.3140 h1         1 H7O       0.044700
     44 H12         80.1430   142.7740    21.3190 h1         1 H7O       0.044700
     45 H13         80.4810   141.9930    19.0960 ha         1 H7O       0.139000
     46 H14         81.4610   146.1530    18.5900 ha         1 H7O       0.133000
     47 H15         82.7740   145.6020    16.5580 ha         1 H7O       0.135000
     48 H16         84.7030   140.2800    12.4980 ha         1 H7O       0.121000
     49 H17         78.9050   141.0660    17.4730 h1         1 H7O       0.068700
     50 H18         78.5390   139.3520    17.7550 h1         1 H7O       0.068700
     51 H19         79.7250   140.4450    15.1600 hc         1 H7O       0.063700
     52 H20         78.9300   137.1350    13.4430 h1         1 H7O       0.053950
     53 H21         79.6350   138.7390    13.1550 h1         1 H7O       0.053950
     54 H22         82.2230   136.3280    11.2430 ha         1 H7O       0.117500
     55 H23         83.8470   132.3450    11.5970 ha         1 H7O       0.114000
     56 H24         85.8880   133.2720    12.6890 ha         1 H7O       0.114000
     57 H25         86.1020   135.7220    13.0590 ha         1 H7O       0.117500
     58 H26         85.3650   137.9720    12.4770 h1         1 H7O       0.043200
     59 H27         83.8780   138.2300    11.5350 h1         1 H7O       0.043200
     60 H28         76.8130   138.1750    13.8570 hn         1 H7O       0.399000
@<TRIPOS>BOND
     1     1     3 ar  
     2     1    16 ar  
     3     1    33 1   
     4     2    17 ar  
     5     2    18 ar  
     6     2    34 1   
     7     3    18 ar  
     8     3    31 1   
     9     4     5 1   
    10     4    21 1   
    11     4    35 1   
    12     4    36 1   
    13     5    29 1   
    14     5    37 1   
    15     5    38 1   
    16     6    21 1   
    17     6    22 1   
    18     6    39 1   
    19     6    40 1   
    20     7    23 ar  
    21     7    26 ar  
    22     7    27 1   
    23     8    23 ar  
    24     8    24 ar  
    25     8    41 1   
    26     9    30 1   
    27     9    42 1   
    28     9    43 1   
    29     9    44 1   
    30    10    11 ar  
    31    10    14 ar  
    32    10    45 1   
    33    11    12 ar  
    34    11    30 1   
    35    12    13 ar  
    36    12    46 1   
    37    13    15 ar  
    38    13    47 1   
    39    14    15 ar  
    40    14    19 ar  
    41    15    28 ar  
    42    16    17 ar  
    43    16    19 ar  
    44    17    28 ar  
    45    18    48 1   
    46    19    32 1   
    47    20    21 1   
    48    20    32 1   
    49    20    49 1   
    50    20    50 1   
    51    21    51 1   
    52    22    29 1   
    53    22    52 1   
    54    22    53 1   
    55    23    54 1   
    56    24    25 ar  
    57    24    55 1   
    58    25    26 ar  
    59    25    56 1   
    60    26    57 1   
    61    27    31 1   
    62    27    58 1   
    63    27    59 1   
    64    29    60 1   
@<TRIPOS>SUBSTRUCTURE
     1 H7O         1 TEMP              0 ****  ****    0 ROOT
