@<TRIPOS>MOLECULE
H7O
   60    64     1     0     0
SMALL
abcg2


@<TRIPOS>ATOM
      1 C10         82.6850   139.7130    15.2560 ca         1 H7O      -0.167000
      2 C13         84.0520   141.8080    14.0230 ca         1 H7O      -0.044000
      3 C15         83.4030   139.4910    14.1110 ca         1 H7O       0.158100
      4 C20         77.8320   139.7790    15.0860 c6         1 H7O      -0.111400
      5 C21         77.7270   139.1000    13.7200 c6         1 H7O       0.148300
      6 C24         79.3950   137.9710    15.7780 c6         1 H7O      -0.111400
      7 C26         83.7480   136.5220    12.0270 ca         1 H7O      -0.092300
      8 C28         83.6010   134.8710    10.2690 ca         1 H7O      -0.111000
      9 C01         79.5550   143.9240    20.7830 c3         1 H7O       0.145900
     10 C03         81.0130   143.0300    18.5610 ca         1 H7O      -0.224000
     11 C04         80.9950   144.3400    18.9510 ca         1 H7O       0.160100
     12 C05         81.7280   145.3250    18.2220 ca         1 H7O      -0.122000
     13 C06         82.4540   144.9720    17.1370 ca         1 H7O      -0.054000
     14 C07         81.7630   142.6280    17.4200 ca         1 H7O       0.011000
     15 C08         82.5010   143.6170    16.6910 ca         1 H7O       0.242000
     16 C11         82.5860   141.0060    15.8190 ca         1 H7O       0.010000
     17 C12         83.2800   142.0840    15.1830 ca         1 H7O       0.235000
     18 C14         84.1170   140.5570    13.4940 ca         1 H7O      -0.174000
     19 C16         81.8190   141.3070    16.9590 ca         1 H7O      -0.097000
     20 C18         79.3010   140.1330    17.0950 c3         1 H7O       0.067600
     21 C19         79.1890   139.4820    15.7260 c6         1 H7O      -0.061700
     22 C23         79.2480   137.3570    14.3890 c6         1 H7O       0.148300
     23 C27         83.8630   136.1680    10.6850 ca         1 H7O      -0.093000
     24 C29         83.2080   133.9100    11.1910 ca         1 H7O      -0.103000
     25 C30         83.0880   134.2570    12.5300 ca         1 H7O      -0.111000
     26 C31         83.3600   135.5540    12.9480 ca         1 H7O      -0.093000
     27 C32         84.0800   137.9310    12.4310 c3         1 H7O       0.214900
     28 N09         83.2300   143.3390    15.6200 nb         1 H7O      -0.624000
     29 N22         77.9850   137.6690    13.7400 n7         1 H7O      -0.843400
     30 O02         80.3250   144.8200    20.0060 os         1 H7O      -0.336100
     31 O25         83.3810   138.2400    13.6200 os         1 H7O      -0.345100
     32 S17         80.9700   140.0220    17.8380 ss         1 H7O      -0.226000
     33 H1          82.1680   138.8860    15.7230 ha         1 H7O       0.148000
     34 H2          84.5860   142.6280    13.5600 ha         1 H7O       0.132000
     35 H3          77.6890   140.8580    14.9750 hc         1 H7O       0.045200
     36 H4          77.0300   139.4170    15.7390 hc         1 H7O       0.045200
     37 H5          78.4470   139.5650    13.0370 h1         1 H7O       0.053950
     38 H6          76.7370   139.2700    13.2910 h1         1 H7O       0.053950
     39 H7          78.6500   137.5310    16.4530 hc         1 H7O       0.045200
     40 H8          80.3760   137.7220    16.1940 hc         1 H7O       0.045200
     41 H9          83.6930   134.6140     9.2210 ha         1 H7O       0.114000
     42 H10         79.1050   144.5130    21.5780 h1         1 H7O       0.044700
     43 H11         78.7610   143.4580    20.1930 h1         1 H7O       0.044700
     44 H12         80.1720   143.1390    21.2260 h1         1 H7O       0.044700
     45 H13         80.4690   142.2720    19.1060 ha         1 H7O       0.139000
     46 H14         81.6930   146.3550    18.5560 ha         1 H7O       0.133000
     47 H15         83.0150   145.7110    16.5790 ha         1 H7O       0.135000
     48 H16         84.7120   140.3920    12.6070 ha         1 H7O       0.121000
     49 H17         79.0170   141.1870    17.0620 h1         1 H7O       0.068700
     50 H18         78.6400   139.6420    17.8140 h1         1 H7O       0.068700
     51 H19         79.9600   139.9150    15.0760 hc         1 H7O       0.063700
     52 H20         79.3560   136.2710    14.4400 h1         1 H7O       0.053950
     53 H21         80.0620   137.7200    13.7510 h1         1 H7O       0.053950
     54 H22         84.1540   136.9160     9.9560 ha         1 H7O       0.117500
     55 H23         82.9940   132.9000    10.8690 ha         1 H7O       0.114000
     56 H24         82.7800   133.5160    13.2560 ha         1 H7O       0.114000
     57 H25         83.2620   135.8010    13.9970 ha         1 H7O       0.117500
     58 H26         85.1610   138.0350    12.5880 h1         1 H7O       0.043200
     59 H27         83.8020   138.6140    11.6220 h1         1 H7O       0.043200
     60 H28         77.2370   137.2120    14.2500 hn         1 H7O       0.399000
@<TRIPOS>BOND
     1     1     3 ar  
     2     1    16 ar  
     3     1    33 1   
     4     2    17 ar  
     5     2    18 ar  
     6     2    34 1   
     7     3    18 ar  
     8     3    31 1   
     9     4     5 1   
    10     4    21 1   
    11     4    35 1   
    12     4    36 1   
    13     5    29 1   
    14     5    37 1   
    15     5    38 1   
    16     6    21 1   
    17     6    22 1   
    18     6    39 1   
    19     6    40 1   
    20     7    23 ar  
    21     7    26 ar  
    22     7    27 1   
    23     8    23 ar  
    24     8    24 ar  
    25     8    41 1   
    26     9    30 1   
    27     9    42 1   
    28     9    43 1   
    29     9    44 1   
    30    10    11 ar  
    31    10    14 ar  
    32    10    45 1   
    33    11    12 ar  
    34    11    30 1   
    35    12    13 ar  
    36    12    46 1   
    37    13    15 ar  
    38    13    47 1   
    39    14    15 ar  
    40    14    19 ar  
    41    15    28 ar  
    42    16    17 ar  
    43    16    19 ar  
    44    17    28 ar  
    45    18    48 1   
    46    19    32 1   
    47    20    21 1   
    48    20    32 1   
    49    20    49 1   
    50    20    50 1   
    51    21    51 1   
    52    22    29 1   
    53    22    52 1   
    54    22    53 1   
    55    23    54 1   
    56    24    25 ar  
    57    24    55 1   
    58    25    26 ar  
    59    25    56 1   
    60    26    57 1   
    61    27    31 1   
    62    27    58 1   
    63    27    59 1   
    64    29    60 1   
@<TRIPOS>SUBSTRUCTURE
     1 H7O         1 TEMP              0 ****  ****    0 ROOT
