@<TRIPOS>MOLECULE
H7P
   53    56     1     0     0
SMALL
abcg2


@<TRIPOS>ATOM
      1 C5           2.2010     0.4030    -0.3420 c6         1 H7P      -0.027400
      2 C6           2.1520     1.5550     0.6750 c6         1 H7P      -0.070400
      3 C7           1.3750     2.7370     0.1060 c6         1 H7P      -0.075900
      4 C2          -0.0490     2.3600    -0.3050 c6         1 H7P      -0.050700
      5 C3           0.0130     1.1890    -1.2930 c6         1 H7P      -0.075900
      6 C4           0.7820    -0.0080    -0.7370 c6         1 H7P      -0.070400
      7 C1          -0.9620     2.0460     0.8980 c3         1 H7P      -0.133700
      8 C8           3.0580    -0.7220     0.1730 ca         1 H7P      -0.020300
      9 C9           4.4810    -0.6700     0.0570 ca         1 H7P      -0.053000
     10 C10          5.1670     0.4030    -0.5580 ca         1 H7P      -0.146000
     11 C11          6.5270     0.3730    -0.6320 ca         1 H7P       0.174000
     12 C12          7.2940    -0.6840    -0.1250 ca         1 H7P      -0.140000
     13 C13          6.6480    -1.7280     0.4740 ca         1 H7P      -0.054000
     14 C14          5.2380    -1.7490     0.5840 ca         1 H7P       0.250000
     15 C15          3.3720    -2.8330     1.2960 ca         1 H7P       0.350900
     16 C16          2.5290    -1.8190     0.8010 ca         1 H7P      -0.165000
     17 C17         -2.3850     1.8530     0.4010 c          1 H7P       0.605100
     18 C18         -4.2120     0.1600     0.4360 ca         1 H7P      -0.017000
     19 C19         -4.5680    -1.0480     1.0410 ca         1 H7P      -0.144500
     20 C20         -5.8030    -1.6260     0.8150 ca         1 H7P      -0.075000
     21 C21         -6.7050    -0.9940    -0.0270 ca         1 H7P       0.091000
     22 C22         -6.3720     0.2030    -0.6360 ca         1 H7P      -0.075000
     23 C23         -5.1320     0.7830    -0.4100 ca         1 H7P      -0.144500
     24 CL          -8.2560    -1.7100    -0.3180 cl         1 H7P      -0.203000
     25 O           -2.9740     2.7240    -0.2150 o          1 H7P      -0.578100
     26 C           -0.9650     3.1430     1.9630 c3         1 H7P      -0.085100
     27 N            4.6720    -2.8150     1.1980 nb         1 H7P      -0.653000
     28 F            7.1750     1.3940    -1.2140 f          1 H7P      -0.177000
     29 H1           2.6690     0.7920    -1.2560 hc         1 H7P       0.060700
     30 H2           1.6920     1.1990     1.6030 hc         1 H7P       0.043450
     31 H3           3.1620     1.8730     0.9420 hc         1 H7P       0.043450
     32 H4           1.3730     3.5660     0.8160 hc         1 H7P       0.048200
     33 H5           1.9000     3.1050    -0.7810 hc         1 H7P       0.048200
     34 H6          -0.4880     3.2210    -0.8190 hc         1 H7P       0.072700
     35 H7          -0.9880     0.8730    -1.5970 hc         1 H7P       0.048200
     36 H8           0.5080     1.5310    -2.2070 hc         1 H7P       0.048200
     37 H9           0.8180    -0.8040    -1.4850 hc         1 H7P       0.043450
     38 H10          0.2470    -0.4210     0.1230 hc         1 H7P       0.043450
     39 H11         -0.6220     1.1220     1.3750 hc         1 H7P       0.050700
     40 H12         -2.3610     0.0340     1.2700 hn         1 H7P       0.149000
     41 H13          4.6360     1.2500    -0.9680 ha         1 H7P       0.134000
     42 H14          8.3720    -0.6640    -0.2110 ha         1 H7P       0.137000
     43 H15          7.2050    -2.5630     0.8790 ha         1 H7P       0.137000
     44 H16          2.9290    -3.6920     1.7900 h4         1 H7P       0.020100
     45 H17          1.4620    -1.9350     0.9280 ha         1 H7P       0.121000
     46 H18         -3.8700    -1.5460     1.7030 ha         1 H7P       0.132000
     47 H19         -6.0540    -2.5620     1.2940 ha         1 H7P       0.130000
     48 H20         -7.0720     0.6960    -1.2970 ha         1 H7P       0.130000
     49 H21         -4.8990     1.7150    -0.8980 ha         1 H7P       0.132000
     50 H22         -1.1630     4.1230     1.5260 hc         1 H7P       0.045367
     51 H23         -1.7260     2.9510     2.7210 hc         1 H7P       0.045367
     52 H24         -0.0060     3.1880     2.4770 hc         1 H7P       0.045367
     53 N1          -2.9340     0.6500     0.7140 ns         1 H7P      -0.146000
@<TRIPOS>BOND
     1     1     2 1   
     2     1     6 1   
     3     1     8 1   
     4     1    29 1   
     5     2     3 1   
     6     2    30 1   
     7     2    31 1   
     8     3     4 1   
     9     3    32 1   
    10     3    33 1   
    11     4     5 1   
    12     4     7 1   
    13     4    34 1   
    14     5     6 1   
    15     5    35 1   
    16     5    36 1   
    17     6    37 1   
    18     6    38 1   
    19     7    17 1   
    20     7    26 1   
    21     7    39 1   
    22     8     9 ar  
    23     8    16 ar  
    24     9    10 ar  
    25     9    14 ar  
    26    10    11 ar  
    27    10    41 1   
    28    11    12 ar  
    29    11    28 1   
    30    12    13 ar  
    31    12    42 1   
    32    13    14 ar  
    33    13    43 1   
    34    14    27 ar  
    35    15    16 ar  
    36    15    27 ar  
    37    15    44 1   
    38    16    45 1   
    39    17    25 2   
    40    17    53 1   
    41    18    19 ar  
    42    18    23 ar  
    43    18    53 1   
    44    19    20 ar  
    45    19    46 1   
    46    20    21 ar  
    47    20    47 1   
    48    21    22 ar  
    49    21    24 1   
    50    22    23 ar  
    51    22    48 1   
    52    23    49 1   
    53    26    50 1   
    54    26    51 1   
    55    26    52 1   
    56    40    53 1   
@<TRIPOS>SUBSTRUCTURE
     1 H7P         1 TEMP              0 ****  ****    0 ROOT
