@<TRIPOS>MOLECULE
H7P
   53    56     1     0     0
SMALL
No Charge or Current Charge


@<TRIPOS>ATOM
      1 C5           2.1430     0.5070    -0.3820 c6         1 H7P      -0.027400
      2 C6           2.1690     1.6580     0.6630 c6         1 H7P      -0.070400
      3 C7           1.4790     2.9360     0.1150 c6         1 H7P      -0.075900
      4 C2           0.0070     2.6740    -0.3310 c6         1 H7P      -0.050700
      5 C3           0.0110     1.5200    -1.3830 c6         1 H7P      -0.075900
      6 C4           0.6750     0.2320    -0.8300 c6         1 H7P      -0.070400
      7 C1          -0.9850     2.4180     0.8680 c3         1 H7P      -0.133700
      8 C8           2.9220    -0.7340     0.1270 ca         1 H7P      -0.020300
      9 C9           4.3450    -0.8130     0.0830 ca         1 H7P      -0.053000
     10 C10          5.1440     0.2450    -0.4250 ca         1 H7P      -0.146000
     11 C11          6.5410     0.1330    -0.4570 ca         1 H7P       0.174000
     12 C12          7.1710    -1.0230     0.0130 ca         1 H7P      -0.140000
     13 C13          6.3940    -2.0760     0.5230 ca         1 H7P      -0.054000
     14 C14          4.9880    -1.9910     0.5690 ca         1 H7P       0.250000
     15 C15          2.9530    -2.9530     1.1310 ca         1 H7P       0.350900
     16 C16          2.2380    -1.8390     0.6770 ca         1 H7P      -0.165000
     17 C17         -2.4110     2.0620     0.3830 c          1 H7P       0.605100
     18 C18         -4.0270     0.0600     0.4830 ca         1 H7P      -0.017000
     19 C19         -4.1170    -1.2460     1.0030 ca         1 H7P      -0.144500
     20 C20         -5.2680    -2.0250     0.7920 ca         1 H7P      -0.075000
     21 C21         -6.3430    -1.5020     0.0580 ca         1 H7P       0.091000
     22 C22         -6.2670    -0.2020    -0.4660 ca         1 H7P      -0.075000
     23 C23         -5.1150     0.5780    -0.2560 ca         1 H7P      -0.144500
     24 Cl          -7.7850    -2.4750    -0.2070 cl         1 H7P      -0.203000
     25 O           -3.0860     2.8550    -0.2650 o          1 H7P      -0.578100
     26 C           -1.0680     3.5890     1.8830 c3         1 H7P      -0.085100
     27 N            4.2970    -3.0340     1.0780 nb         1 H7P      -0.653000
     28 F            7.2840     1.1500    -0.9440 f          1 H7P      -0.177000
     29 H1           2.6470     0.8620    -1.2900 hc         1 H7P       0.060700
     30 H2           1.6850     1.3310     1.5930 hc         1 H7P       0.043450
     31 H3           3.2050     1.8990     0.9340 hc         1 H7P       0.043450
     32 H4           1.5300     3.7400     0.8590 hc         1 H7P       0.048200
     33 H5           2.0520     3.3050    -0.7470 hc         1 H7P       0.048200
     34 H6          -0.3580     3.5820    -0.8340 hc         1 H7P       0.072700
     35 H7          -1.0070     1.2970    -1.7310 hc         1 H7P       0.048200
     36 H8           0.5570     1.8500    -2.2780 hc         1 H7P       0.048200
     37 H9           0.6640    -0.5470    -1.6050 hc         1 H7P       0.043450
     38 H10          0.0720    -0.1480     0.0030 hc         1 H7P       0.043450
     39 H11         -0.6210     1.5550     1.4390 hc         1 H7P       0.050700
     40 H12         -2.1480     0.2640     1.2730 hn         1 H7P       0.149000
     41 H13          4.7100     1.1670    -0.7960 ha         1 H7P       0.134000
     42 H14          8.2540    -1.1030    -0.0150 ha         1 H7P       0.137000
     43 H15          6.8860    -2.9730     0.8910 ha         1 H7P       0.137000
     44 H16          2.4320    -3.8110     1.5550 h4         1 H7P       0.020100
     45 H17          1.1580    -1.8610     0.7690 ha         1 H7P       0.121000
     46 H18         -3.2900    -1.6640     1.5740 ha         1 H7P       0.132000
     47 H19         -5.3280    -3.0330     1.1980 ha         1 H7P       0.130000
     48 H20         -7.1010     0.2010    -1.0350 ha         1 H7P       0.130000
     49 H21         -5.0920     1.5780    -0.6770 ha         1 H7P       0.132000
     50 H22         -1.3310     4.5270     1.3790 hc         1 H7P       0.045367
     51 H23         -1.8320     3.3850     2.6440 hc         1 H7P       0.045367
     52 H24         -0.1170     3.7320     2.4080 hc         1 H7P       0.045367
     53 N1          -2.8300     0.7840     0.7360 ns         1 H7P      -0.146000
@<TRIPOS>BOND
     1     1     2 1   
     2     1     6 1   
     3     1     8 1   
     4     1    29 1   
     5     2     3 1   
     6     2    30 1   
     7     2    31 1   
     8     3     4 1   
     9     3    32 1   
    10     3    33 1   
    11     4     5 1   
    12     4     7 1   
    13     4    34 1   
    14     5     6 1   
    15     5    35 1   
    16     5    36 1   
    17     6    37 1   
    18     6    38 1   
    19     7    17 1   
    20     7    26 1   
    21     7    39 1   
    22     8     9 ar  
    23     8    16 ar  
    24     9    10 ar  
    25     9    14 ar  
    26    10    11 ar  
    27    10    41 1   
    28    11    12 ar  
    29    11    28 1   
    30    12    13 ar  
    31    12    42 1   
    32    13    14 ar  
    33    13    43 1   
    34    14    27 ar  
    35    15    16 ar  
    36    15    27 ar  
    37    15    44 1   
    38    16    45 1   
    39    17    25 2   
    40    17    53 1   
    41    18    19 ar  
    42    18    23 ar  
    43    18    53 1   
    44    19    20 ar  
    45    19    46 1   
    46    20    21 ar  
    47    20    47 1   
    48    21    22 ar  
    49    21    24 1   
    50    22    23 ar  
    51    22    48 1   
    52    23    49 1   
    53    26    50 1   
    54    26    51 1   
    55    26    52 1   
    56    40    53 1   
@<TRIPOS>SUBSTRUCTURE
     1 H7P         1 TEMP              0 ****  ****    0 ROOT
