@<TRIPOS>MOLECULE
H7Q
   65    70     1     0     0
SMALL
bcc


@<TRIPOS>ATOM
      1 N1           2.7990     3.2840    -0.0330 ne         1 H7Q      -0.655100
      2 C4           5.6500     1.7270     1.3620 c5         1 H7Q      -0.060400
      3 C5           4.0890     3.3260     0.0840 c2         1 H7Q       0.643200
      4 C6           2.4650     1.9280    -0.1010 ca         1 H7Q       0.157400
      5 C7           1.1880     1.3950    -0.2360 ca         1 H7Q      -0.176000
      6 C8           1.0420     0.0120    -0.2770 ca         1 H7Q       0.130100
      7 C10          3.4380    -0.2800    -0.0470 ca         1 H7Q      -0.143000
      8 C13          2.4370    -4.4550    -0.1680 cx         1 H7Q      -0.127700
      9 C15          3.1440    -5.5470     0.5740 cx         1 H7Q      -0.124400
     10 C17         -2.4910    -0.7810    -0.7330 c3         1 H7Q      -0.081400
     11 C20         -6.4910    -0.5130     0.6090 ca         1 H7Q      -0.121800
     12 C21         -7.0860    -0.3710     1.8500 ca         1 H7Q      -0.107000
     13 C22         -8.0880     0.5840     2.0050 ca         1 H7Q      -0.128500
     14 C24         -7.8900     1.2180    -0.3200 ca         1 H7Q      -0.107000
     15 C26         -6.0820    -0.1380    -1.6690 c5         1 H7Q       0.195600
     16 N            4.7910     4.4580     0.1800 nv         1 H7Q      -0.936800
     17 C            7.1010     1.7390     0.8830 c5         1 H7Q      -0.082900
     18 C1           7.0050     1.1250    -0.5070 c5         1 H7Q      -0.082900
     19 C11          3.5720     1.0970    -0.0140 ca         1 H7Q      -0.153300
     20 C12          2.9850    -3.0650    -0.0930 c3         1 H7Q       0.169400
     21 C14          1.8080    -5.0620     1.0470 cx         1 H7Q      -0.124400
     22 C16         -1.3130     0.1560    -0.5640 c3         1 H7Q       0.137400
     23 C18         -3.7820     0.0090    -0.9070 c3         1 H7Q       0.156800
     24 C19         -5.4120    -1.4520     0.1340 c5         1 H7Q       0.195600
     25 C2           5.7800     1.8190    -1.0980 c5         1 H7Q      -0.060400
     26 C23         -8.4860     1.3710     0.9290 ca         1 H7Q      -0.128500
     27 C25         -6.8890     0.2730    -0.4650 ca         1 H7Q      -0.121800
     28 C3           4.7850     1.9720     0.0920 c5         1 H7Q      -0.097000
     29 C9           2.1670    -0.8330    -0.1780 ca         1 H7Q       0.088100
     30 N2          -4.9310    -0.8630    -1.1230 n3         1 H7Q      -0.694600
     31 O1          -0.1430    -0.6240    -0.4060 os         1 H7Q      -0.303900
     32 H6           5.4100     0.7420     1.7670 hc         1 H7Q       0.054200
     33 H7           5.4480     2.4510     2.1530 hc         1 H7Q       0.054200
     34 H10          0.3350     2.0570    -0.3040 ha         1 H7Q       0.152000
     35 H11          4.3130    -0.9130     0.0270 ha         1 H7Q       0.135000
     36 H14          2.0090    -4.7270    -1.1280 hc         1 H7Q       0.090700
     37 H17          3.2020    -6.5200     0.1060 hc         1 H7Q       0.072450
     38 H18          4.0180    -5.2830     1.1580 hc         1 H7Q       0.072450
     39 H22         -2.3420    -1.4160    -1.6090 hc         1 H7Q       0.063200
     40 H21         -2.5550    -1.4390     0.1380 hc         1 H7Q       0.063200
     41 H28         -8.5590     0.7170     2.9700 ha         1 H7Q       0.130000
     42 H30         -8.2030     1.8340    -1.1540 ha         1 H7Q       0.133000
     43 H32         -6.6770    -0.8030    -2.3060 h1         1 H7Q       0.064450
     44 H31         -5.7650     0.6980    -2.2940 h1         1 H7Q       0.064450
     45 H9           4.3260     5.3500     0.2100 hn         1 H7Q       0.439800
     46 H8           5.7840     4.4520     0.3320 hn         1 H7Q       0.439800
     47 H1           7.4790     2.7630     0.8110 hc         1 H7Q       0.044950
     48 H            7.7640     1.1960     1.5580 hc         1 H7Q       0.044950
     49 H3           7.8990     1.2730    -1.1140 hc         1 H7Q       0.044950
     50 H2           6.8340     0.0470    -0.4300 hc         1 H7Q       0.044950
     51 H13          3.5040    -2.9170     0.8630 h1         1 H7Q       0.030200
     52 H12          3.7180    -2.8980    -0.8920 h1         1 H7Q       0.030200
     53 H16          1.7740    -4.4650     1.9500 hc         1 H7Q       0.072450
     54 H15          0.9490    -5.7070     0.9080 hc         1 H7Q       0.072450
     55 H19         -1.2210     0.8110    -1.4390 h1         1 H7Q       0.032200
     56 H20         -1.4650     0.8010     0.3100 h1         1 H7Q       0.032200
     57 H24         -3.9220     0.6880    -0.0490 h1         1 H7Q       0.035700
     58 H23         -3.6760     0.6470    -1.7880 h1         1 H7Q       0.035700
     59 H25         -4.6020    -1.5820     0.8530 h1         1 H7Q       0.064450
     60 H26         -5.8310    -2.4480    -0.0510 h1         1 H7Q       0.064450
     61 H4           6.0710     2.8030    -1.4740 hc         1 H7Q       0.054200
     62 H5           5.3310     1.2790    -1.9310 hc         1 H7Q       0.054200
     63 H29         -9.2640     2.1120     1.0650 ha         1 H7Q       0.130000
     64 O            1.9030    -2.1600    -0.2160 os         1 H7Q      -0.300900
     65 H27         -6.7800    -0.9830     2.6910 ha         1 H7Q       0.133000
@<TRIPOS>BOND
     1     1     3 2   
     2     1     4 1   
     3     2    17 1   
     4     2    28 1   
     5     2    32 1   
     6     2    33 1   
     7     3    16 1   
     8     3    28 1   
     9     4     5 ar  
    10     4    19 ar  
    11     5     6 ar  
    12     5    34 1   
    13     6    29 ar  
    14     6    31 1   
    15     7    19 ar  
    16     7    29 ar  
    17     7    35 1   
    18     8     9 1   
    19     8    20 1   
    20     8    21 1   
    21     8    36 1   
    22     9    21 1   
    23     9    37 1   
    24     9    38 1   
    25    10    22 1   
    26    10    23 1   
    27    10    39 1   
    28    10    40 1   
    29    11    12 ar  
    30    11    24 1   
    31    11    27 ar  
    32    12    13 ar  
    33    12    65 1   
    34    13    26 ar  
    35    13    41 1   
    36    14    26 ar  
    37    14    27 ar  
    38    14    42 1   
    39    15    27 1   
    40    15    30 1   
    41    15    43 1   
    42    15    44 1   
    43    16    45 1   
    44    16    46 1   
    45    17    18 1   
    46    17    47 1   
    47    17    48 1   
    48    18    25 1   
    49    18    49 1   
    50    18    50 1   
    51    19    28 1   
    52    20    51 1   
    53    20    52 1   
    54    20    64 1   
    55    21    53 1   
    56    21    54 1   
    57    22    31 1   
    58    22    55 1   
    59    22    56 1   
    60    23    30 1   
    61    23    57 1   
    62    23    58 1   
    63    24    30 1   
    64    24    59 1   
    65    24    60 1   
    66    25    28 1   
    67    25    61 1   
    68    25    62 1   
    69    26    63 1   
    70    29    64 1   
@<TRIPOS>SUBSTRUCTURE
     1 H7Q         1 TEMP              0 ****  ****    0 ROOT
