@<TRIPOS>MOLECULE
H7Q
   65    70     1     0     0
SMALL
No Charge or Current Charge


@<TRIPOS>ATOM
      1 N1           3.0620     3.3670    -0.3150 ne         1 H7Q      -0.655100
      2 C4           5.6770     1.7690     1.3810 c5         1 H7Q      -0.060400
      3 C5           4.3400     3.4020    -0.1650 c2         1 H7Q       0.643200
      4 C6           2.6390     2.0360    -0.3020 ca         1 H7Q       0.157400
      5 C7           1.3360     1.5540    -0.4480 ca         1 H7Q      -0.158000
      6 C8           1.1290     0.1520    -0.4090 ca         1 H7Q       0.130100
      7 C10          3.5440    -0.2050    -0.0810 ca         1 H7Q      -0.125000
      8 C13          2.3950    -4.4350    -0.0230 cx         1 H7Q      -0.127700
      9 C15          3.0220    -5.5970     0.7150 cx         1 H7Q      -0.124400
     10 C17         -2.5160    -0.5400    -0.8400 c3         1 H7Q      -0.081400
     11 C20         -6.5800    -0.6870     0.5480 ca         1 H7Q      -0.121800
     12 C21         -7.1440    -0.7820     1.8290 ca         1 H7Q      -0.089000
     13 C22         -8.2190     0.0700     2.1560 ca         1 H7Q      -0.110500
     14 C24         -8.1250     1.0720    -0.0750 ca         1 H7Q      -0.089000
     15 C26         -6.2690     0.0980    -1.6550 c5         1 H7Q       0.195600
     16 N            4.9560     4.6120    -0.1080 nv         1 H7Q      -1.047200
     17 C            7.1730     1.6720     0.9780 c5         1 H7Q      -0.082900
     18 C1           7.0820     0.8430    -0.3310 c5         1 H7Q      -0.082900
     19 C11          3.7170     1.1870    -0.1210 ca         1 H7Q      -0.153300
     20 C12          3.0410    -3.0560    -0.0070 c3         1 H7Q       0.192600
     21 C14          1.7250    -4.9990     1.2110 cx         1 H7Q      -0.124400
     22 C16         -1.3100     0.4100    -0.7320 c3         1 H7Q       0.160600
     23 C18         -3.8450     0.2190    -1.0400 c3         1 H7Q       0.156800
     24 C19         -5.4370    -1.4710    -0.0420 c5         1 H7Q       0.195600
     25 C2           6.0100     1.6420    -1.1200 c5         1 H7Q      -0.060400
     26 C23         -8.7080     0.9950     1.2060 ca         1 H7Q      -0.110500
     27 C25         -7.0560     0.2130    -0.3760 ca         1 H7Q      -0.121800
     28 C3           4.9850     2.0160    -0.0000 c5         1 H7Q      -0.097000
     29 C9           2.2340    -0.7290    -0.2260 ca         1 H7Q       0.088100
     30 N2          -5.0220    -0.6570    -1.2510 n3         1 H7Q      -0.694600
     31 O1          -0.1350    -0.3970    -0.5470 os         1 H7Q      -0.327100
     32 H6           5.3430     0.8350     1.8470 hc         1 H7Q       0.054200
     33 H7           5.4890     2.5700     2.1050 hc         1 H7Q       0.054200
     34 H10          0.5230     2.2580    -0.5880 ha         1 H7Q       0.134000
     35 H11          4.4080    -0.8470     0.0590 ha         1 H7Q       0.117000
     36 H14          1.9300    -4.6600    -0.9800 hc         1 H7Q       0.090700
     37 H17          2.9810    -6.5760     0.2440 hc         1 H7Q       0.072450
     38 H18          3.9210    -5.4090     1.2980 hc         1 H7Q       0.072450
     39 H22         -2.3610    -1.2200    -1.6870 hc         1 H7Q       0.063200
     40 H21         -2.5630    -1.1520     0.0660 hc         1 H7Q       0.063200
     41 H28         -8.6730     0.0150     3.1430 ha         1 H7Q       0.112000
     42 H30         -8.4940     1.7810    -0.8130 ha         1 H7Q       0.115000
     43 H32         -6.8500    -0.4700    -2.3960 h1         1 H7Q       0.064450
     44 H31         -6.0490     1.0840    -2.0890 h1         1 H7Q       0.064450
     45 H9           4.3030     5.3610     0.0910 hn         1 H7Q       0.495000
     46 H8           5.7980     4.6250     0.4550 hn         1 H7Q       0.495000
     47 H1           7.6140     2.6610     0.8020 hc         1 H7Q       0.044950
     48 H            7.7790     1.1770     1.7460 hc         1 H7Q       0.044950
     49 H3           8.0380     0.7940    -0.8630 hc         1 H7Q       0.044950
     50 H2           6.7630    -0.1880    -0.1370 hc         1 H7Q       0.044950
     51 H13          3.5510    -2.8930     0.9520 h1         1 H7Q       0.030200
     52 H12          3.7810    -2.9900    -0.8150 h1         1 H7Q       0.030200
     53 H16          1.7560    -4.4080     2.1230 hc         1 H7Q       0.072450
     54 H15          0.8140    -5.5760     1.0730 hc         1 H7Q       0.072450
     55 H19         -1.2300     1.0080    -1.6490 h1         1 H7Q       0.032200
     56 H20         -1.4540     1.0870     0.1210 h1         1 H7Q       0.032200
     57 H24         -4.0150     0.8740    -0.1730 h1         1 H7Q       0.035700
     58 H23         -3.7240     0.8720    -1.9150 h1         1 H7Q       0.035700
     59 H25         -4.6310    -1.6120     0.6900 h1         1 H7Q       0.064450
     60 H26         -5.7910    -2.4680    -0.3410 h1         1 H7Q       0.064450
     61 H4           6.4530     2.5390    -1.5690 hc         1 H7Q       0.054200
     62 H5           5.5670     1.0620    -1.9380 hc         1 H7Q       0.054200
     63 H29         -9.5370     1.6500     1.4640 ha         1 H7Q       0.112000
     64 O            1.9920    -2.0920    -0.1940 os         1 H7Q      -0.324100
     65 H27         -6.7610    -1.4970     2.5550 ha         1 H7Q       0.115000
@<TRIPOS>BOND
     1     1     3 2   
     2     1     4 1   
     3     2    17 1   
     4     2    28 1   
     5     2    32 1   
     6     2    33 1   
     7     3    16 1   
     8     3    28 1   
     9     4     5 ar  
    10     4    19 ar  
    11     5     6 ar  
    12     5    34 1   
    13     6    29 ar  
    14     6    31 1   
    15     7    19 ar  
    16     7    29 ar  
    17     7    35 1   
    18     8     9 1   
    19     8    20 1   
    20     8    21 1   
    21     8    36 1   
    22     9    21 1   
    23     9    37 1   
    24     9    38 1   
    25    10    22 1   
    26    10    23 1   
    27    10    39 1   
    28    10    40 1   
    29    11    12 ar  
    30    11    24 1   
    31    11    27 ar  
    32    12    13 ar  
    33    12    65 1   
    34    13    26 ar  
    35    13    41 1   
    36    14    26 ar  
    37    14    27 ar  
    38    14    42 1   
    39    15    27 1   
    40    15    30 1   
    41    15    43 1   
    42    15    44 1   
    43    16    45 1   
    44    16    46 1   
    45    17    18 1   
    46    17    47 1   
    47    17    48 1   
    48    18    25 1   
    49    18    49 1   
    50    18    50 1   
    51    19    28 1   
    52    20    51 1   
    53    20    52 1   
    54    20    64 1   
    55    21    53 1   
    56    21    54 1   
    57    22    31 1   
    58    22    55 1   
    59    22    56 1   
    60    23    30 1   
    61    23    57 1   
    62    23    58 1   
    63    24    30 1   
    64    24    59 1   
    65    24    60 1   
    66    25    28 1   
    67    25    61 1   
    68    25    62 1   
    69    26    63 1   
    70    29    64 1   
@<TRIPOS>SUBSTRUCTURE
     1 H7Q         1 TEMP              0 ****  ****    0 ROOT
