@<TRIPOS>MOLECULE
H7R
   46    49     1     0     0
SMALL
bcc


@<TRIPOS>ATOM
      1 C10         81.1230   144.7990    18.9980 ca         1 H7R       0.152100
      2 C15         82.7090   142.3120    16.7080 ca         1 H7R       0.094900
      3 C20         80.3300   140.6290    15.3150 c6         1 H7R      -0.060700
      4 C21         79.1910   141.0090    16.2570 c6         1 H7R      -0.072400
      5 C22         78.0350   141.6290    15.4850 c6         1 H7R       0.159300
      6 C24         78.6080   140.4310    13.4890 c6         1 H7R       0.159300
      7 C01         83.9190   143.6660    15.1350 ca         1 H7R       0.452600
      8 C02         83.5290   142.3820    15.6010 ca         1 H7R       0.012100
      9 C05         84.7540   141.7400    13.9020 cc         1 H7R       0.411100
     10 C07         82.8070   144.7550    16.7540 ca         1 H7R       0.373600
     11 C08         82.4410   145.9800    17.3620 ca         1 H7R      -0.139300
     12 C09         81.6280   146.0070    18.4530 ca         1 H7R      -0.135000
     13 C11         81.4640   143.5930    18.4400 ca         1 H7R      -0.220000
     14 C12         82.3190   143.5380    17.3130 ca         1 H7R      -0.076300
     15 C14         79.7320   143.7990    20.6340 c3         1 H7R       0.121700
     16 C18         84.9810   139.0960    13.2930 c3         1 H7R      -0.020000
     17 C19         81.4670   139.8910    16.0020 c3         1 H7R       0.017700
     18 C25         79.7900   139.7620    14.1740 c6         1 H7R      -0.072400
     19 N03         83.6030   144.8030    15.6640 nb         1 H7R      -0.606000
     20 N04         84.0310   141.3300    14.8810 nd         1 H7R      -0.556100
     21 N23         77.5670   140.7120    14.4610 n7         1 H7R      -0.806200
     22 O13         80.3160   144.9510    20.0580 os         1 H7R      -0.313900
     23 S06         84.9400   143.4760    13.7250 ss         1 H7R      -0.165500
     24 S16         82.2250   140.7710    17.4070 ss         1 H7R      -0.256000
     25 S17         85.5450   140.7220    12.7490 ss         1 H7R      -0.156300
     26 H1          80.7290   141.5500    14.8710 hc         1 H7R       0.052700
     27 H2          79.5350   141.7120    17.0180 hc         1 H7R       0.048450
     28 H3          78.8390   140.1150    16.7820 hc         1 H7R       0.048450
     29 H4          78.3690   142.5930    15.0640 h1         1 H7R       0.029700
     30 H5          77.2100   141.8490    16.1650 h1         1 H7R       0.029700
     31 H6          78.2040   139.7720    12.7170 h1         1 H7R       0.029700
     32 H7          78.9630   141.3410    12.9780 h1         1 H7R       0.029700
     33 H8          82.8220   146.8980    16.9340 ha         1 H7R       0.155000
     34 H9          81.3510   146.9480    18.9100 ha         1 H7R       0.152000
     35 H10         81.0840   142.6630    18.8380 ha         1 H7R       0.158000
     36 H11         79.1050   144.1460    21.4510 h1         1 H7R       0.045033
     37 H12         79.1110   143.2570    19.9160 h1         1 H7R       0.045033
     38 H13         80.4870   143.1170    21.0320 h1         1 H7R       0.045033
     39 H14         85.4270   138.3830    12.6030 h1         1 H7R       0.074700
     40 H15         85.3220   138.8860    14.3030 h1         1 H7R       0.074700
     41 H16         83.8980   139.0250    13.2390 h1         1 H7R       0.074700
     42 H17         81.1020   138.9660    16.4580 h1         1 H7R       0.078700
     43 H18         82.2460   139.6280    15.2890 h1         1 H7R       0.078700
     44 H19         79.4750   138.7920    14.5720 hc         1 H7R       0.048450
     45 H20         80.5790   139.5690    13.4420 hc         1 H7R       0.048450
     46 H21         76.7660   141.1120    13.9900 hn         1 H7R       0.354800
@<TRIPOS>BOND
     1     1    12 ar  
     2     1    13 ar  
     3     1    22 1   
     4     2     8 ar  
     5     2    14 ar  
     6     2    24 1   
     7     3     4 1   
     8     3    17 1   
     9     3    18 1   
    10     3    26 1   
    11     4     5 1   
    12     4    27 1   
    13     4    28 1   
    14     5    21 1   
    15     5    29 1   
    16     5    30 1   
    17     6    18 1   
    18     6    21 1   
    19     6    31 1   
    20     6    32 1   
    21     7     8 ar  
    22     7    19 ar  
    23     7    23 1   
    24     8    20 1   
    25     9    20 2   
    26     9    23 1   
    27     9    25 1   
    28    10    11 ar  
    29    10    14 ar  
    30    10    19 ar  
    31    11    12 ar  
    32    11    33 1   
    33    12    34 1   
    34    13    14 ar  
    35    13    35 1   
    36    15    22 1   
    37    15    36 1   
    38    15    37 1   
    39    15    38 1   
    40    16    25 1   
    41    16    39 1   
    42    16    40 1   
    43    16    41 1   
    44    17    24 1   
    45    17    42 1   
    46    17    43 1   
    47    18    44 1   
    48    18    45 1   
    49    21    46 1   
@<TRIPOS>SUBSTRUCTURE
     1 H7R         1 TEMP              0 ****  ****    0 ROOT
