@<TRIPOS>MOLECULE
H7R
   46    49     1     0     0
SMALL
No Charge or Current Charge


@<TRIPOS>ATOM
      1 C10         81.0020   144.7320    18.7630 ca         1 H7R       0.152100
      2 C15         82.8470   142.2560    16.6170 ca         1 H7R      -0.032000
      3 C20         80.2430   140.6830    15.3920 c6         1 H7R      -0.060700
      4 C21         79.1400   140.8830    16.4690 c6         1 H7R      -0.072400
      5 C22         77.9380   141.6760    15.8980 c6         1 H7R       0.159300
      6 C24         78.4040   140.8510    13.6190 c6         1 H7R       0.159300
      7 C01         84.0430   143.5700    14.9930 ca         1 H7R       0.387300
      8 C02         83.7140   142.3240    15.5080 ca         1 H7R       0.077400
      9 C05         85.0330   141.7170    13.8830 cc         1 H7R       0.411100
     10 C07         82.7620   144.7090    16.5360 ca         1 H7R       0.243000
     11 C08         82.2690   145.9190    17.0580 ca         1 H7R      -0.056000
     12 C09         81.3970   145.9320    18.1590 ca         1 H7R      -0.117000
     13 C11         81.4870   143.5070    18.2610 ca         1 H7R      -0.202000
     14 C12         82.3620   143.4820    17.1480 ca         1 H7R      -0.011000
     15 C14         79.6480   143.6360    20.5160 c3         1 H7R       0.144900
     16 C18         85.4620   138.9450    13.4980 c3         1 H7R       0.027900
     17 C19         81.4490   139.8490    15.9160 c3         1 H7R       0.065600
     18 C25         79.6190   140.0350    14.1260 c6         1 H7R      -0.072400
     19 N03         83.5950   144.7490    15.4690 nb         1 H7R      -0.606000
     20 N04         84.2880   141.2220    14.8740 nd         1 H7R      -0.556100
     21 N23         77.3890   141.0240    14.6860 n7         1 H7R      -0.861400
     22 O13         80.1400   144.8060    19.8390 os         1 H7R      -0.337100
     23 S06         85.1280   143.4650    13.6200 ss         1 H7R      -0.165500
     24 S16         82.3670   140.6620    17.3050 ss         1 H7R      -0.177000
     25 S17         85.9160   140.6120    12.8350 ss         1 H7R      -0.204200
     26 H1          80.6380   141.6680    15.1060 hc         1 H7R       0.052700
     27 H2          79.5400   141.4190    17.3380 hc         1 H7R       0.048450
     28 H3          78.7920   139.9080    16.8360 hc         1 H7R       0.048450
     29 H4          78.2610   142.6990    15.6490 h1         1 H7R       0.029700
     30 H5          77.1510   141.7530    16.6630 h1         1 H7R       0.029700
     31 H6          77.9480   140.3380    12.7590 h1         1 H7R       0.029700
     32 H7          78.7440   141.8390    13.2760 h1         1 H7R       0.029700
     33 H8          82.5670   146.8580    16.6000 ha         1 H7R       0.137000
     34 H9          81.0260   146.8770    18.5450 ha         1 H7R       0.134000
     35 H10         81.1880   142.5790    18.7330 ha         1 H7R       0.140000
     36 H11         78.9730   143.9240    21.3310 h1         1 H7R       0.045033
     37 H12         79.0890   142.9910    19.8250 h1         1 H7R       0.045033
     38 H13         80.4740   143.0570    20.9470 h1         1 H7R       0.045033
     39 H14         85.9630   138.1660    12.9110 h1         1 H7R       0.074700
     40 H15         85.7770   138.8630    14.5460 h1         1 H7R       0.074700
     41 H16         84.3760   138.8010    13.4340 h1         1 H7R       0.074700
     42 H17         81.0910   138.8700    16.2590 h1         1 H7R       0.078700
     43 H18         82.1490   139.6770    15.0900 h1         1 H7R       0.078700
     44 H19         79.3010   139.0070    14.3480 hc         1 H7R       0.048450
     45 H20         80.3700   139.9660    13.3270 hc         1 H7R       0.048450
     46 H21         76.6180   141.5990    14.3200 hn         1 H7R       0.410000
@<TRIPOS>BOND
     1     1    12 ar  
     2     1    13 ar  
     3     1    22 1   
     4     2     8 ar  
     5     2    14 ar  
     6     2    24 1   
     7     3     4 1   
     8     3    17 1   
     9     3    18 1   
    10     3    26 1   
    11     4     5 1   
    12     4    27 1   
    13     4    28 1   
    14     5    21 1   
    15     5    29 1   
    16     5    30 1   
    17     6    18 1   
    18     6    21 1   
    19     6    31 1   
    20     6    32 1   
    21     7     8 ar  
    22     7    19 ar  
    23     7    23 1   
    24     8    20 1   
    25     9    20 2   
    26     9    23 1   
    27     9    25 1   
    28    10    11 ar  
    29    10    14 ar  
    30    10    19 ar  
    31    11    12 ar  
    32    11    33 1   
    33    12    34 1   
    34    13    14 ar  
    35    13    35 1   
    36    15    22 1   
    37    15    36 1   
    38    15    37 1   
    39    15    38 1   
    40    16    25 1   
    41    16    39 1   
    42    16    40 1   
    43    16    41 1   
    44    17    24 1   
    45    17    42 1   
    46    17    43 1   
    47    18    44 1   
    48    18    45 1   
    49    21    46 1   
@<TRIPOS>SUBSTRUCTURE
     1 H7R         1 TEMP              0 ****  ****    0 ROOT
