@<TRIPOS>MOLECULE
H7S
   26    28     1     0     0
SMALL
No Charge or Current Charge


@<TRIPOS>ATOM
      1 C1           1.3920     0.3240    -0.5810 c5         1 H7S      -0.067500
      2 C2           1.8090     1.0930     0.6980 c          1 H7S       0.568000
      3 C4           3.8120     0.5260    -0.4000 c          1 H7S       0.569000
      4 C5           2.7330    -0.3900    -0.9850 c5         1 H7S      -0.168400
      5 CG           0.1920    -0.6020    -0.4170 cc         1 H7S      -0.145400
      6 CD1          0.2050    -1.9870    -0.5890 cd         1 H7S      -0.138100
      7 NE1         -1.0950    -2.5050    -0.3700 na         1 H7S      -0.212700
      8 CE2         -1.8970    -1.4160    -0.0850 ca         1 H7S      -0.064200
      9 CD2         -1.1670    -0.2600    -0.1070 ca         1 H7S      -0.059800
     10 CE3         -1.7560     0.9900     0.1330 ca         1 H7S      -0.095000
     11 CZ3         -3.1360     1.0230     0.4120 ca         1 H7S       0.143000
     12 CH2         -3.8950    -0.1690     0.4420 ca         1 H7S      -0.127000
     13 CZ2         -3.2730    -1.4110     0.1880 ca         1 H7S      -0.099000
     14 N3           3.1590     1.1670     0.5960 ns         1 H7S      -0.484500
     15 O6           4.9180     0.8260    -0.8160 o          1 H7S      -0.503000
     16 O7           1.1520     1.5040     1.6410 o          1 H7S      -0.487000
     17 F8          -3.7420     2.2070     0.6510 f          1 H7S      -0.184000
     18 H1           1.1800     1.0910    -1.3340 hc         1 H7S       0.089700
     19 H2           2.8250    -1.3340    -0.4380 hc         1 H7S       0.084700
     20 H3           2.8840    -0.5740    -2.0540 hc         1 H7S       0.084700
     21 H4           1.0290    -2.6440    -0.8530 h4         1 H7S       0.213000
     22 H5          -1.3830    -3.4780    -0.4260 hn         1 H7S       0.355000
     23 H6          -1.1720     1.9060     0.1060 ha         1 H7S       0.137000
     24 H7          -4.9590    -0.1270     0.6570 ha         1 H7S       0.131000
     25 H8          -3.8450    -2.3360     0.2030 ha         1 H7S       0.119000
     26 H9           3.6720     1.7680     1.2230 hn         1 H7S       0.342500
@<TRIPOS>BOND
     1     1     2 1   
     2     1     4 1   
     3     1     5 1   
     4     1    18 1   
     5     2    14 1   
     6     2    16 2   
     7     3     4 1   
     8     3    14 1   
     9     3    15 2   
    10     4    19 1   
    11     4    20 1   
    12     5     6 2   
    13     5     9 1   
    14     6     7 1   
    15     6    21 1   
    16     7     8 1   
    17     7    22 1   
    18     8     9 ar  
    19     8    13 ar  
    20     9    10 ar  
    21    10    11 ar  
    22    10    23 1   
    23    11    12 ar  
    24    11    17 1   
    25    12    13 ar  
    26    12    24 1   
    27    13    25 1   
    28    14    26 1   
@<TRIPOS>SUBSTRUCTURE
     1 H7S         1 TEMP              0 ****  ****    0 ROOT
