@<TRIPOS>MOLECULE
H7S
   26    28     1     0     0
SMALL
bcc


@<TRIPOS>ATOM
      1 C1           1.3570     0.3770    -0.5500 c5         1 H7S      -0.067500
      2 C2           1.8550     0.9630     0.7640 c          1 H7S       0.710500
      3 C4           3.7640     0.4240    -0.4190 c          1 H7S       0.711500
      4 C5           2.6240    -0.1610    -1.2150 c5         1 H7S      -0.168400
      5 CG           0.2260    -0.5760    -0.3630 cc         1 H7S      -0.145400
      6 CD1          0.2590    -1.9440    -0.3800 cd         1 H7S      -0.088100
      7 NE1         -0.9880    -2.4440    -0.1600 na         1 H7S      -0.162400
      8 CE2         -1.8680    -1.4140     0.0030 ca         1 H7S      -0.064200
      9 CD2         -1.1350    -0.2140    -0.1170 ca         1 H7S      -0.059800
     10 CE3         -1.7950     1.0150     0.0090 ca         1 H7S      -0.113000
     11 CZ3         -3.1470     0.9810     0.2370 ca         1 H7S       0.107900
     12 CH2         -3.8810    -0.2030     0.3570 ca         1 H7S      -0.145000
     13 CZ2         -3.2400    -1.4200     0.2410 ca         1 H7S      -0.117000
     14 N3           3.2260     1.0040     0.7050 ns         1 H7S      -0.618500
     15 O6           4.9410     0.3850    -0.6780 o          1 H7S      -0.578500
     16 O7           1.1880     1.3500     1.6890 o          1 H7S      -0.562500
     17 F8          -3.8170     2.1460     0.3600 f          1 H7S      -0.148900
     18 H1           1.0000     1.2390    -1.1280 hc         1 H7S       0.089700
     19 H2           2.7070    -1.2480    -1.1540 hc         1 H7S       0.084700
     20 H3           2.7090     0.1080    -2.2670 hc         1 H7S       0.084700
     21 H4           1.0880    -2.6160    -0.5360 h4         1 H7S       0.163000
     22 H5          -1.2180    -3.4240    -0.1410 hn         1 H7S       0.304700
     23 H6          -1.2680     1.9580    -0.0700 ha         1 H7S       0.155000
     24 H7          -4.9460    -0.1580     0.5390 ha         1 H7S       0.149000
     25 H8          -3.7950    -2.3450     0.3340 ha         1 H7S       0.137000
     26 H9           3.7940     1.4120     1.4360 hn         1 H7S       0.342500
@<TRIPOS>BOND
     1     1     2 1   
     2     1     4 1   
     3     1     5 1   
     4     1    18 1   
     5     2    14 1   
     6     2    16 2   
     7     3     4 1   
     8     3    14 1   
     9     3    15 2   
    10     4    19 1   
    11     4    20 1   
    12     5     6 2   
    13     5     9 1   
    14     6     7 1   
    15     6    21 1   
    16     7     8 1   
    17     7    22 1   
    18     8     9 ar  
    19     8    13 ar  
    20     9    10 ar  
    21    10    11 ar  
    22    10    23 1   
    23    11    12 ar  
    24    11    17 1   
    25    12    13 ar  
    26    12    24 1   
    27    13    25 1   
    28    14    26 1   
@<TRIPOS>SUBSTRUCTURE
     1 H7S         1 TEMP              0 ****  ****    0 ROOT
