@<TRIPOS>MOLECULE
H7T
  112   119     1     0     0
SMALL
No Charge or Current Charge


@<TRIPOS>ATOM
      1 N1          10.6140    -3.2120    -2.9580 ne         1 H7T      -0.653100
      2 N3          -6.5020     0.7820     0.2060 na         1 H7T       0.136800
      3 C4          10.5510    -2.4150    -1.8190 ca         1 H7T       0.157400
      4 C5           9.5850    -1.4610    -1.4940 ca         1 H7T      -0.158000
      5 C6           9.7190    -0.7590    -0.2700 ca         1 H7T       0.131100
      6 C7           7.6580     0.5450    -0.6830 c3         1 H7T       0.160600
      7 C8           6.8750     1.6380     0.0650 c3         1 H7T      -0.081400
      8 C10          4.2040     2.8740     1.2370 c5         1 H7T       0.200100
      9 C13          0.4790     1.8710     0.9990 ca         1 H7T      -0.198000
     10 C15         -2.1330     1.6860    -0.2660 c3         1 H7T       0.167600
     11 C17         -4.5760     1.1740    -0.6580 cc         1 H7T       0.205300
     12 C20         -8.9740     1.0980    -0.1840 c          1 H7T       0.591100
     13 C21        -10.6780     1.0560     1.7380 c6         1 H7T       0.097500
     14 C22        -11.5860    -0.1910     1.8500 c6         1 H7T      -0.097400
     15 C26        -17.2980    -2.2990    -0.1390 c5         1 H7T       0.157300
     16 C28        -16.7250    -4.6310     0.3300 c5         1 H7T      -0.079400
     17 O            8.8000     0.2020     0.1190 os         1 H7T      -0.328100
     18 C1          12.5030    -3.7650    -1.6040 c5         1 H7T      -0.089000
     19 C11          2.7690     2.6300     0.8470 ca         1 H7T      -0.161300
     20 C12          1.7610     1.9830     1.5760 ca         1 H7T      -0.050000
     21 C14          0.2270     2.4050    -0.2920 ca         1 H7T       0.149100
     22 C16         -3.3280     1.7840    -1.2280 c3         1 H7T      -0.092700
     23 C18         -5.6750     1.8130    -0.1770 cd         1 H7T      -0.195000
     24 C2          13.9340    -3.2500    -1.9010 c3         1 H7T      -0.069100
     25 C23        -12.8360    -0.0650     0.9340 c6         1 H7T      -0.057700
     26 C27        -17.9400    -3.6520     0.2590 c5         1 H7T      -0.079400
     27 C29        -15.4940    -3.7250     0.0520 c5         1 H7T       0.157300
     28 C3          11.6540    -3.9640    -2.8770 c2         1 H7T       0.637200
     29 C30        -12.3950     0.2530    -0.5240 c6         1 H7T      -0.097400
     30 C31        -11.4570     1.4830    -0.5720 c6         1 H7T       0.097500
     31 C32          1.2620     3.0490    -0.9970 ca         1 H7T      -0.126000
     32 C33          2.5290     3.1480    -0.4010 ca         1 H7T      -0.090300
     33 C34          3.7830     3.7790    -0.9450 c5         1 H7T       0.197100
     34 C35         10.8200    -1.0330     0.5930 ca         1 H7T       0.088100
     35 C36         11.9950    -0.5300     2.7090 c3         1 H7T       0.191600
     36 C37         11.7660     0.4190     3.8790 cx         1 H7T      -0.127700
     37 C38         12.9250     0.9250     4.7080 cx         1 H7T      -0.124400
     38 C39         12.1770     1.8720     3.7980 cx         1 H7T      -0.124400
     39 C40         11.7820    -2.0090     0.2280 ca         1 H7T      -0.125000
     40 C41         11.6230    -2.6880    -0.9890 ca         1 H7T      -0.158300
     41 C9           5.6150     2.0890    -0.7060 c3         1 H7T       0.155800
     42 N2           4.8830     3.2120    -0.0740 n3         1 H7T      -0.694600
     43 N4         -10.2860     1.2860     0.3210 n          1 H7T      -0.407800
     44 N5         -15.9760    -2.4030     0.5090 n3         1 H7T      -0.719600
     45 N6          -5.9010    -0.4280    -0.0340 nd         1 H7T      -0.188800
     46 N7          -4.7300    -0.1800    -0.5650 nc         1 H7T      -0.358000
     47 O2          -8.7630     1.1400    -1.3910 o          1 H7T      -0.573100
     48 O3          10.9190    -0.3270     1.7800 os         1 H7T      -0.323100
     49 H8           8.7630    -1.2830    -2.1790 ha         1 H7T       0.134000
     50 H10          7.0120    -0.3300    -0.8340 h1         1 H7T       0.032700
     51 H9           7.9730     0.9260    -1.6640 h1         1 H7T       0.032700
     52 H12          6.5970     1.2560     1.0530 hc         1 H7T       0.062700
     53 H11          7.5280     2.5050     0.2210 hc         1 H7T       0.062700
     54 H16          4.2570     3.7210     1.9360 h1         1 H7T       0.062700
     55 H15          4.6350     2.0000     1.7420 h1         1 H7T       0.062700
     56 H18         -0.3010     1.3700     1.5640 ha         1 H7T       0.122000
     57 H20         -2.3820     2.1880     0.6780 h1         1 H7T       0.046700
     58 H19         -1.9150     0.6300    -0.0560 h1         1 H7T       0.046700
     59 H26        -11.2280     1.9370     2.0990 h1         1 H7T       0.055450
     60 H27         -9.8090     0.9350     2.3960 h1         1 H7T       0.055450
     61 H28        -11.0090    -1.0860     1.5770 hc         1 H7T       0.053450
     62 H29        -11.8950    -0.3250     2.8960 hc         1 H7T       0.053450
     63 H32        -13.1620    -2.2070     0.6680 hc         1 H7T       0.049200
     64 H31        -13.9570    -1.5400     2.0830 hc         1 H7T       0.049200
     65 H36        -17.8810    -1.4420     0.2260 h1         1 H7T       0.034950
     66 H39        -16.6560    -5.0950     1.3210 hc         1 H7T       0.046700
     67 H40        -16.7990    -5.4440    -0.4020 hc         1 H7T       0.046700
     68 H17          1.9630     1.5770     2.5650 ha         1 H7T       0.114000
     69 H22         -3.5110     2.8380    -1.4660 hc         1 H7T       0.064200
     70 H21         -3.0730     1.2860    -2.1710 hc         1 H7T       0.064200
     71 H23         -5.9200     2.8630    -0.0850 h4         1 H7T       0.166000
     72 H4          14.5280    -4.0030    -2.4320 hc         1 H7T       0.040367
     73 H3          13.9060    -2.3480    -2.5240 hc         1 H7T       0.040367
     74 H5          14.4660    -2.9970    -0.9760 hc         1 H7T       0.040367
     75 H30        -13.4470     0.7720     1.3030 hc         1 H7T       0.047700
     76 H38        -18.4350    -3.5770     1.2340 hc         1 H7T       0.046700
     77 H37        -18.6970    -3.9730    -0.4650 hc         1 H7T       0.046700
     78 H41        -14.6050    -4.0680     0.5980 h1         1 H7T       0.034950
     79 H42        -15.2510    -3.7100    -1.0210 h1         1 H7T       0.034950
     80 H43        -11.8780    -0.6140    -0.9570 hc         1 H7T       0.053450
     81 H44        -13.2690     0.4480    -1.1590 hc         1 H7T       0.053450
     82 H45        -11.1410     1.6650    -1.6090 h1         1 H7T       0.055450
     83 H46        -12.0090     2.3760    -0.2440 h1         1 H7T       0.055450
     84 H47          1.0810     3.4610    -1.9860 ha         1 H7T       0.128000
     85 H49          3.9240     3.5540    -2.0110 h1         1 H7T       0.064700
     86 H48          3.7210     4.8710    -0.8400 h1         1 H7T       0.064700
     87 H51         12.9620    -0.3130     2.2360 h1         1 H7T       0.030700
     88 H50         12.0060    -1.5640     3.0750 h1         1 H7T       0.030700
     89 H52         10.8450     0.1980     4.4130 hc         1 H7T       0.090700
     90 H53         12.7740     1.0270     5.7800 hc         1 H7T       0.072450
     91 H54         13.9310     0.6330     4.4160 hc         1 H7T       0.072450
     92 H55         12.6800     2.2120     2.8950 hc         1 H7T       0.072450
     93 H56         11.5230     2.6090     4.2580 hc         1 H7T       0.072450
     94 H57         12.6330    -2.2440     0.8610 ha         1 H7T       0.117000
     95 H13          5.9360     2.3920    -1.7120 h1         1 H7T       0.035700
     96 H14          4.9450     1.2270    -0.8290 h1         1 H7T       0.035700
     97 N           11.9130    -4.8100    -3.9100 nv         1 H7T      -1.044200
     98 C           12.5730    -5.0380    -0.7220 c3         1 H7T      -0.069100
     99 O1          -1.0090     2.3210    -0.9000 os         1 H7T      -0.357100
    100 C19         -7.8320     0.8780     0.8220 c3         1 H7T      -0.008400
    101 C24        -13.7280    -1.3400     1.0290 c3         1 H7T      -0.075400
    102 C25        -15.0690    -1.2590     0.2610 c3         1 H7T       0.172800
    103 H35        -17.2030    -2.2090    -1.2310 h1         1 H7T       0.034950
    104 H7          11.4100    -4.5480    -4.7500 hn         1 H7T       0.494000
    105 H6          12.8970    -5.0060    -4.0530 hn         1 H7T       0.494000
    106 H1          11.5680    -5.4120    -0.4910 hc         1 H7T       0.040367
    107 H2          13.1180    -5.8430    -1.2280 hc         1 H7T       0.040367
    108 H           13.0790    -4.8360     0.2300 hc         1 H7T       0.040367
    109 H25         -8.0380    -0.0450     1.3750 h1         1 H7T       0.085700
    110 H24         -7.8330     1.7160     1.5280 h1         1 H7T       0.085700
    111 H33        -15.5750    -0.3320     0.5620 h1         1 H7T       0.029700
    112 H34        -14.8620    -1.1810    -0.8140 h1         1 H7T       0.029700
@<TRIPOS>BOND
     1     1     3 1   
     2     1    28 2   
     3     2    23 1   
     4     2    45 1   
     5     2   100 1   
     6     3     4 ar  
     7     3    40 ar  
     8     4     5 ar  
     9     4    49 1   
    10     5    17 1   
    11     5    34 ar  
    12     6     7 1   
    13     6    17 1   
    14     6    50 1   
    15     6    51 1   
    16     7    41 1   
    17     7    52 1   
    18     7    53 1   
    19     8    19 1   
    20     8    42 1   
    21     8    54 1   
    22     8    55 1   
    23     9    20 ar  
    24     9    21 ar  
    25     9    56 1   
    26    10    22 1   
    27    10    57 1   
    28    10    58 1   
    29    10    99 1   
    30    11    22 1   
    31    11    23 2   
    32    11    46 1   
    33    12    43 1   
    34    12    47 2   
    35    12   100 1   
    36    13    14 1   
    37    13    43 1   
    38    13    59 1   
    39    13    60 1   
    40    14    25 1   
    41    14    61 1   
    42    14    62 1   
    43    15    26 1   
    44    15    44 1   
    45    15    65 1   
    46    15   103 1   
    47    16    26 1   
    48    16    27 1   
    49    16    66 1   
    50    16    67 1   
    51    18    24 1   
    52    18    28 1   
    53    18    40 1   
    54    18    98 1   
    55    19    20 ar  
    56    19    32 ar  
    57    20    68 1   
    58    21    31 ar  
    59    21    99 1   
    60    22    69 1   
    61    22    70 1   
    62    23    71 1   
    63    24    72 1   
    64    24    73 1   
    65    24    74 1   
    66    25    29 1   
    67    25    75 1   
    68    25   101 1   
    69    26    76 1   
    70    26    77 1   
    71    27    44 1   
    72    27    78 1   
    73    27    79 1   
    74    28    97 1   
    75    29    30 1   
    76    29    80 1   
    77    29    81 1   
    78    30    43 1   
    79    30    82 1   
    80    30    83 1   
    81    31    32 ar  
    82    31    84 1   
    83    32    33 1   
    84    33    42 1   
    85    33    85 1   
    86    33    86 1   
    87    34    39 ar  
    88    34    48 1   
    89    35    36 1   
    90    35    48 1   
    91    35    87 1   
    92    35    88 1   
    93    36    37 1   
    94    36    38 1   
    95    36    89 1   
    96    37    38 1   
    97    37    90 1   
    98    37    91 1   
    99    38    92 1   
   100    38    93 1   
   101    39    40 ar  
   102    39    94 1   
   103    41    42 1   
   104    41    95 1   
   105    41    96 1   
   106    44   102 1   
   107    45    46 2   
   108    63   101 1   
   109    64   101 1   
   110    97   104 1   
   111    97   105 1   
   112    98   106 1   
   113    98   107 1   
   114    98   108 1   
   115   100   109 1   
   116   100   110 1   
   117   101   102 1   
   118   102   111 1   
   119   102   112 1   
@<TRIPOS>SUBSTRUCTURE
     1 H7T         1 TEMP              0 ****  ****    0 ROOT
