@<TRIPOS>MOLECULE
H7T
  112   119     1     0     0
SMALL
bcc


@<TRIPOS>ATOM
      1 N1           9.3640    -3.1920    -3.0500 ne         1 H7T      -0.653100
      2 N3          -6.5700     1.9310     0.2650 na         1 H7T       0.115400
      3 C4           9.5660    -2.4930    -1.8560 ca         1 H7T       0.157400
      4 C5           8.7310    -1.5230    -1.3120 ca         1 H7T      -0.176000
      5 C6           9.1010    -0.9200    -0.1130 ca         1 H7T       0.131100
      6 C7           7.2130     0.5250    -0.1280 c3         1 H7T       0.137400
      7 C8           6.6490     1.6520     0.7130 c3         1 H7T      -0.081400
      8 C10          4.1560     2.9940     2.0180 c5         1 H7T       0.200100
      9 C13          0.3770     2.3390     1.5690 ca         1 H7T      -0.216000
     10 C15         -2.1000     2.5190     0.2200 c3         1 H7T       0.144400
     11 C17         -4.5190     2.2020    -0.2900 cc         1 H7T       0.270600
     12 C20         -8.6660     1.2570    -0.7690 c          1 H7T       0.658100
     13 C21        -10.8640     1.8140     0.2500 c6         1 H7T       0.097500
     14 C22        -11.6590     0.7270     0.9610 c6         1 H7T      -0.097400
     15 C26        -15.9470    -3.6330    -0.3300 c5         1 H7T       0.157300
     16 C28        -15.6210    -4.7960     1.7640 c5         1 H7T      -0.079400
     17 O            8.3820     0.0400     0.5060 os         1 H7T      -0.304900
     18 C1          11.4180    -3.8940    -2.0590 c5         1 H7T      -0.089000
     19 C11          2.7140     2.8790     1.5920 ca         1 H7T      -0.161300
     20 C12          1.6240     2.2830     2.1920 ca         1 H7T      -0.068000
     21 C14          0.2350     2.9940     0.3460 ca         1 H7T       0.149100
     22 C16         -3.2080     2.6890    -0.8060 c3         1 H7T      -0.092700
     23 C18         -5.7530     2.7920    -0.3630 cd         1 H7T      -0.227600
     24 C2          12.7680    -3.4060    -2.5920 c3         1 H7T      -0.069100
     25 C23        -12.4620    -0.1220    -0.0240 c6         1 H7T      -0.057700
     26 C27        -16.6550    -4.5750     0.6400 c5         1 H7T      -0.079400
     27 C29        -14.4530    -3.8730     1.3960 c5         1 H7T       0.157300
     28 C3          10.3850    -3.9810    -3.1780 c2         1 H7T       0.637200
     29 C30        -11.5270    -0.6530    -1.1110 c6         1 H7T      -0.097400
     30 C31        -10.7410     0.4740    -1.7710 c6         1 H7T       0.097500
     31 C32          1.3390     3.6110    -0.2540 ca         1 H7T      -0.144000
     32 C33          2.5610     3.5420     0.3800 ca         1 H7T      -0.090300
     33 C34          3.8970     4.1230    -0.0030 c5         1 H7T       0.197100
     34 C35         10.2950    -1.2890     0.5400 ca         1 H7T       0.088100
     35 C36         11.7250    -0.9740     2.4120 c3         1 H7T       0.168400
     36 C37         11.8030    -0.1010     3.6240 cx         1 H7T      -0.127700
     37 C38         13.1530     0.2220     4.1870 cx         1 H7T      -0.124400
     38 C39         12.3550     1.2860     3.4980 cx         1 H7T      -0.124400
     39 C40         11.1160    -2.2640    -0.0190 ca         1 H7T      -0.143000
     40 C41         10.7410    -2.8520    -1.2140 ca         1 H7T      -0.158300
     41 C9           5.3840     2.2120     0.0770 c3         1 H7T       0.155800
     42 N2           4.8750     3.3750     0.7940 n3         1 H7T      -0.694600
     43 N4         -10.0080     1.2370    -0.7740 n          1 H7T      -0.474800
     44 N5         -15.0520    -2.8760     0.5250 n3         1 H7T      -0.719600
     45 N6          -5.9060     0.8730     0.6880 nd         1 H7T      -0.188800
     46 N7          -4.6690     1.0270     0.3640 nc         1 H7T      -0.358000
     47 O2          -7.9730     0.7320    -1.6250 o          1 H7T      -0.573100
     48 O3          10.5530    -0.6300     1.6940 os         1 H7T      -0.299900
     49 H8           7.8160    -1.2510    -1.8210 ha         1 H7T       0.152000
     50 H10          6.4750    -0.2790    -0.2380 h1         1 H7T       0.032700
     51 H9           7.4490     0.8910    -1.1340 h1         1 H7T       0.032700
     52 H12          6.4460     1.2830     1.7220 hc         1 H7T       0.062700
     53 H11          7.3870     2.4530     0.8000 hc         1 H7T       0.062700
     54 H16          4.2700     3.7740     2.7790 h1         1 H7T       0.062700
     55 H15          4.5590     2.0750     2.4470 h1         1 H7T       0.062700
     56 H18         -0.4650     1.8590     2.0490 ha         1 H7T       0.140000
     57 H20         -2.3610     3.0240     1.1560 h1         1 H7T       0.046700
     58 H19         -1.9570     1.4570     0.4430 h1         1 H7T       0.046700
     59 H26        -11.5470     2.5180    -0.2350 h1         1 H7T       0.055450
     60 H27        -10.2850     2.3900     0.9670 h1         1 H7T       0.055450
     61 H28        -10.9690     0.0870     1.5220 hc         1 H7T       0.053450
     62 H29        -12.3250     1.1980     1.6890 hc         1 H7T       0.053450
     63 H32        -12.5060    -1.8630     1.2360 hc         1 H7T       0.049200
     64 H31        -13.8570    -0.7670     1.4710 hc         1 H7T       0.049200
     65 H36        -16.6290    -2.9710    -0.8680 h1         1 H7T       0.034950
     66 H39        -16.0390    -4.5320     2.7350 hc         1 H7T       0.046700
     67 H40        -15.2930    -5.8330     1.8290 hc         1 H7T       0.046700
     68 H17          1.7180     1.7640     3.1380 ha         1 H7T       0.132000
     69 H22         -3.3040     3.7410    -1.0780 hc         1 H7T       0.064200
     70 H21         -2.9380     2.1480    -1.7180 hc         1 H7T       0.064200
     71 H23         -6.0920     3.7230    -0.7860 h4         1 H7T       0.184000
     72 H4          13.2230    -4.1370    -3.2610 hc         1 H7T       0.040367
     73 H3          12.6670    -2.4640    -3.1320 hc         1 H7T       0.040367
     74 H5          13.4600    -3.2460    -1.7640 hc         1 H7T       0.040367
     75 H30        -13.2000     0.5330    -0.5070 hc         1 H7T       0.047700
     76 H38        -17.5580    -4.1060     1.0340 hc         1 H7T       0.046700
     77 H37        -16.9570    -5.5030     0.1560 hc         1 H7T       0.046700
     78 H41        -13.9860    -3.4130     2.2680 h1         1 H7T       0.034950
     79 H42        -13.6680    -4.4450     0.8700 h1         1 H7T       0.034950
     80 H43        -10.8290    -1.3740    -0.6740 hc         1 H7T       0.053450
     81 H44        -12.0890    -1.1820    -1.8850 hc         1 H7T       0.053450
     82 H45        -10.0480     0.0830    -2.5110 h1         1 H7T       0.055450
     83 H46        -11.4270     1.1520    -2.2890 h1         1 H7T       0.055450
     84 H47          1.2180     4.1250    -1.2000 ha         1 H7T       0.146000
     85 H49          4.1210     4.0610    -1.0690 h1         1 H7T       0.064700
     86 H48          3.9280     5.1850     0.2680 h1         1 H7T       0.064700
     87 H51         12.6170    -0.8300     1.7880 h1         1 H7T       0.030700
     88 H50         11.6960    -2.0320     2.7010 h1         1 H7T       0.030700
     89 H52         11.0020    -0.2410     4.3430 hc         1 H7T       0.090700
     90 H53         13.2550     0.2680     5.2630 hc         1 H7T       0.072450
     91 H54         14.0230    -0.1730     3.6770 hc         1 H7T       0.072450
     92 H55         12.6820     1.6140     2.5190 hc         1 H7T       0.072450
     93 H56         11.9090     2.0650     4.1020 hc         1 H7T       0.072450
     94 H57         12.0400    -2.5600     0.4630 ha         1 H7T       0.135000
     95 H13          5.6240     2.5310    -0.9400 h1         1 H7T       0.035700
     96 H14          4.6300     1.4130    -0.0180 h1         1 H7T       0.035700
     97 N           10.5470    -4.8310    -4.1950 nv         1 H7T      -0.933800
     98 C           11.5700    -5.2330    -1.3360 c3         1 H7T      -0.069100
     99 O1          -0.9260     3.0800    -0.3380 os         1 H7T      -0.333900
    100 C19         -7.9980     1.9940     0.3970 c3         1 H7T      -0.037700
    101 C24        -13.2210    -1.2250     0.7060 c3         1 H7T      -0.075400
    102 C25        -14.1020    -2.0690    -0.2080 c3         1 H7T       0.172800
    103 H35        -15.3900    -4.2140    -1.0860 h1         1 H7T       0.034950
    104 H7           9.8960    -4.8400    -4.9620 hn         1 H7T       0.438800
    105 H6          11.3890    -5.3680    -4.3020 hn         1 H7T       0.438800
    106 H1          10.6120    -5.6020    -0.9700 hc         1 H7T       0.040367
    107 H2          12.0020    -5.9920    -1.9920 hc         1 H7T       0.040367
    108 H           12.2390    -5.1210    -0.4820 hc         1 H7T       0.040367
    109 H25         -8.2710     1.5480     1.3530 h1         1 H7T       0.085700
    110 H24         -8.2950     3.0430     0.4270 h1         1 H7T       0.085700
    111 H33        -14.6650    -1.4030    -0.8710 h1         1 H7T       0.029700
    112 H34        -13.4730    -2.6990    -0.8610 h1         1 H7T       0.029700
@<TRIPOS>BOND
     1     1     3 1   
     2     1    28 2   
     3     2    23 1   
     4     2    45 1   
     5     2   100 1   
     6     3     4 ar  
     7     3    40 ar  
     8     4     5 ar  
     9     4    49 1   
    10     5    17 1   
    11     5    34 ar  
    12     6     7 1   
    13     6    17 1   
    14     6    50 1   
    15     6    51 1   
    16     7    41 1   
    17     7    52 1   
    18     7    53 1   
    19     8    19 1   
    20     8    42 1   
    21     8    54 1   
    22     8    55 1   
    23     9    20 ar  
    24     9    21 ar  
    25     9    56 1   
    26    10    22 1   
    27    10    57 1   
    28    10    58 1   
    29    10    99 1   
    30    11    22 1   
    31    11    23 2   
    32    11    46 1   
    33    12    43 1   
    34    12    47 2   
    35    12   100 1   
    36    13    14 1   
    37    13    43 1   
    38    13    59 1   
    39    13    60 1   
    40    14    25 1   
    41    14    61 1   
    42    14    62 1   
    43    15    26 1   
    44    15    44 1   
    45    15    65 1   
    46    15   103 1   
    47    16    26 1   
    48    16    27 1   
    49    16    66 1   
    50    16    67 1   
    51    18    24 1   
    52    18    28 1   
    53    18    40 1   
    54    18    98 1   
    55    19    20 ar  
    56    19    32 ar  
    57    20    68 1   
    58    21    31 ar  
    59    21    99 1   
    60    22    69 1   
    61    22    70 1   
    62    23    71 1   
    63    24    72 1   
    64    24    73 1   
    65    24    74 1   
    66    25    29 1   
    67    25    75 1   
    68    25   101 1   
    69    26    76 1   
    70    26    77 1   
    71    27    44 1   
    72    27    78 1   
    73    27    79 1   
    74    28    97 1   
    75    29    30 1   
    76    29    80 1   
    77    29    81 1   
    78    30    43 1   
    79    30    82 1   
    80    30    83 1   
    81    31    32 ar  
    82    31    84 1   
    83    32    33 1   
    84    33    42 1   
    85    33    85 1   
    86    33    86 1   
    87    34    39 ar  
    88    34    48 1   
    89    35    36 1   
    90    35    48 1   
    91    35    87 1   
    92    35    88 1   
    93    36    37 1   
    94    36    38 1   
    95    36    89 1   
    96    37    38 1   
    97    37    90 1   
    98    37    91 1   
    99    38    92 1   
   100    38    93 1   
   101    39    40 ar  
   102    39    94 1   
   103    41    42 1   
   104    41    95 1   
   105    41    96 1   
   106    44   102 1   
   107    45    46 2   
   108    63   101 1   
   109    64   101 1   
   110    97   104 1   
   111    97   105 1   
   112    98   106 1   
   113    98   107 1   
   114    98   108 1   
   115   100   109 1   
   116   100   110 1   
   117   101   102 1   
   118   102   111 1   
   119   102   112 1   
@<TRIPOS>SUBSTRUCTURE
     1 H7T         1 TEMP              0 ****  ****    0 ROOT
