@<TRIPOS>MOLECULE
H7U
   56    59     1     0     0
SMALL
abcg2


@<TRIPOS>ATOM
      1 C13         84.1740   143.3150    15.4410 ca         1 H7U       0.240000
      2 C15         85.0680   141.9960    13.6170 ca         1 H7U      -0.126000
      3 C17         83.2460   138.8460    13.1480 c3         1 H7U       0.177300
      4 C20         79.9990   141.2930    15.8200 c3         1 H7U       0.063600
      5 C21         79.5680   139.9010    15.3910 c6         1 H7U      -0.052700
      6 C22         78.6580   139.9920    14.1650 c6         1 H7U      -0.114400
      7 C26         78.8590   139.1290    16.5010 c6         1 H7U      -0.114400
      8 C28         83.6480   137.8580    14.2300 c3         1 H7U      -0.108600
      9 C01         79.7470   144.7440    20.6250 c3         1 H7U       0.144900
     10 C04         81.4810   144.0170    18.5520 ca         1 H7U      -0.218000
     11 C05         81.5710   145.2190    19.1960 ca         1 H7U       0.156100
     12 C06         82.5800   146.1620    18.8330 ca         1 H7U      -0.122000
     13 C07         83.4480   145.8810    17.8320 ca         1 H7U      -0.054000
     14 C08         82.3800   143.6940    17.4980 ca         1 H7U       0.012000
     15 C09         83.3780   144.6480    17.1190 ca         1 H7U       0.241000
     16 C11         83.2480   141.0950    14.9370 ca         1 H7U      -0.234000
     17 C12         83.2360   142.2750    15.7280 ca         1 H7U       0.005000
     18 C14         85.0910   143.1250    14.3660 ca         1 H7U      -0.052000
     19 C16         84.1240   140.9610    13.8950 ca         1 H7U       0.174100
     20 C18         82.3330   142.4890    16.7810 ca         1 H7U      -0.100000
     21 C23         78.1790   138.6040    13.7430 c6         1 H7U       0.149800
     22 C25         78.3720   137.7740    15.9920 c6         1 H7U       0.149800
     23 C27         83.2030   138.1990    11.7780 c3         1 H7U      -0.108600
     24 N10         84.2360   144.4500    16.1270 nb         1 H7U      -0.625000
     25 N24         77.5330   137.8540    14.8080 n7         1 H7U      -0.845400
     26 O02         84.1910   139.9190    13.0570 os         1 H7U      -0.349100
     27 O03         80.7600   145.6250    20.1830 os         1 H7U      -0.336100
     28 S19         81.1710   141.2300    17.2320 ss         1 H7U      -0.227000
     29 H1          85.7610   141.8630    12.7960 ha         1 H7U       0.132000
     30 H2          82.2560   139.2600    13.3710 h1         1 H7U       0.043700
     31 H3          80.4980   141.8080    14.9980 h1         1 H7U       0.068200
     32 H4          79.1360   141.8920    16.1180 h1         1 H7U       0.068200
     33 H5          80.4650   139.3370    15.1020 hc         1 H7U       0.054700
     34 H6          79.1870   140.4720    13.3370 hc         1 H7U       0.047950
     35 H7          77.7920   140.6220    14.4000 hc         1 H7U       0.047950
     36 H8          78.0050   139.7150    16.8590 hc         1 H7U       0.047950
     37 H9          79.5240   138.9780    17.3580 hc         1 H7U       0.047950
     38 H10         83.7150   138.3200    15.2150 hc         1 H7U       0.048700
     39 H11         82.9070   137.0610    14.2920 hc         1 H7U       0.048700
     40 H12         84.6120   137.4050    13.9980 hc         1 H7U       0.048700
     41 H13         79.2240   145.2540    21.4310 h1         1 H7U       0.044367
     42 H14         79.0340   144.5140    19.8290 h1         1 H7U       0.044367
     43 H15         80.1620   143.8090    21.0080 h1         1 H7U       0.044367
     44 H16         80.7250   143.2890    18.8120 ha         1 H7U       0.140000
     45 H17         82.6330   147.1020    19.3670 ha         1 H7U       0.132000
     46 H18         84.2120   146.5920    17.5450 ha         1 H7U       0.135000
     47 H19         82.5490   140.3110    15.1880 ha         1 H7U       0.134000
     48 H20         85.8040   143.9130    14.1590 ha         1 H7U       0.135000
     49 H21         79.0400   138.0220    13.3940 h1         1 H7U       0.052450
     50 H22         77.4910   138.6820    12.8990 h1         1 H7U       0.052450
     51 H23         77.8220   137.2520    16.7770 h1         1 H7U       0.052450
     52 H24         79.2400   137.1500    15.7500 h1         1 H7U       0.052450
     53 H25         82.4830   137.3810    11.7800 hc         1 H7U       0.048700
     54 H26         82.8990   138.9110    11.0110 hc         1 H7U       0.048700
     55 H27         84.1770   137.7880    11.5060 hc         1 H7U       0.048700
     56 H28         76.6650   138.3170    15.0530 hn         1 H7U       0.403000
@<TRIPOS>BOND
     1     1    17 ar  
     2     1    18 ar  
     3     1    24 ar  
     4     2    18 ar  
     5     2    19 ar  
     6     2    29 1   
     7     3     8 1   
     8     3    23 1   
     9     3    26 1   
    10     3    30 1   
    11     4     5 1   
    12     4    28 1   
    13     4    31 1   
    14     4    32 1   
    15     5     6 1   
    16     5     7 1   
    17     5    33 1   
    18     6    21 1   
    19     6    34 1   
    20     6    35 1   
    21     7    22 1   
    22     7    36 1   
    23     7    37 1   
    24     8    38 1   
    25     8    39 1   
    26     8    40 1   
    27     9    27 1   
    28     9    41 1   
    29     9    42 1   
    30     9    43 1   
    31    10    11 ar  
    32    10    14 ar  
    33    10    44 1   
    34    11    12 ar  
    35    11    27 1   
    36    12    13 ar  
    37    12    45 1   
    38    13    15 ar  
    39    13    46 1   
    40    14    15 ar  
    41    14    20 ar  
    42    15    24 ar  
    43    16    17 ar  
    44    16    19 ar  
    45    16    47 1   
    46    17    20 ar  
    47    18    48 1   
    48    19    26 1   
    49    20    28 1   
    50    21    25 1   
    51    21    49 1   
    52    21    50 1   
    53    22    25 1   
    54    22    51 1   
    55    22    52 1   
    56    23    53 1   
    57    23    54 1   
    58    23    55 1   
    59    25    56 1   
@<TRIPOS>SUBSTRUCTURE
     1 H7U         1 TEMP              0 ****  ****    0 ROOT
