@<TRIPOS>MOLECULE
H7U
   56    59     1     0     0
SMALL
No Charge or Current Charge


@<TRIPOS>ATOM
      1 C13         84.2500   143.4290    15.2080 ca         1 H7U       0.240000
      2 C15         85.3870   142.3160    13.3470 ca         1 H7U      -0.126000
      3 C17         84.3000   138.7750    12.9020 c3         1 H7U       0.177300
      4 C20         80.1560   140.9870    15.4920 c3         1 H7U       0.063600
      5 C21         79.0860   139.8620    15.5620 c6         1 H7U      -0.052700
      6 C22         78.1080   139.9420    14.3580 c6         1 H7U      -0.114400
      7 C26         78.2780   139.8920    16.8900 c6         1 H7U      -0.114400
      8 C28         85.0380   138.1010    14.0810 c3         1 H7U      -0.108600
      9 C01         79.5000   143.7140    20.4800 c3         1 H7U       0.144900
     10 C04         81.4240   143.4890    18.3050 ca         1 H7U      -0.218000
     11 C05         81.2990   144.6620    19.0770 ca         1 H7U       0.156100
     12 C06         82.1170   145.7630    18.7970 ca         1 H7U      -0.122000
     13 C07         83.0540   145.7020    17.7530 ca         1 H7U      -0.054000
     14 C08         82.3680   143.4190    17.2500 ca         1 H7U       0.012000
     15 C09         83.1940   144.5420    16.9690 ca         1 H7U       0.241000
     16 C11         83.6670   141.1290    14.5800 ca         1 H7U      -0.234000
     17 C12         83.4710   142.2580    15.4140 ca         1 H7U       0.005000
     18 C14         85.2000   143.4380    14.1700 ca         1 H7U      -0.052000
     19 C16         84.6300   141.1560    13.5500 ca         1 H7U       0.174100
     20 C18         82.5100   142.2510    16.4580 ca         1 H7U      -0.100000
     21 C23         77.0180   138.8460    14.4450 c6         1 H7U       0.149800
     22 C25         77.1820   138.7990    16.9050 c6         1 H7U       0.149800
     23 C27         84.4970   138.0080    11.5810 c3         1 H7U      -0.108600
     24 N10         84.1070   144.5350    15.9720 nb         1 H7U      -0.625000
     25 N24         76.2860   138.9290    15.7310 n7         1 H7U      -0.845400
     26 O02         84.8560   140.0890    12.7010 os         1 H7U      -0.349100
     27 O03         80.3940   144.7800    20.1120 os         1 H7U      -0.336100
     28 S19         81.4840   140.8030    16.7630 ss         1 H7U      -0.227000
     29 H1          86.1250   142.3450    12.5500 ha         1 H7U       0.132000
     30 H2          83.2230   138.8240    13.1060 h1         1 H7U       0.043700
     31 H3          80.6270   140.9750    14.5010 h1         1 H7U       0.068200
     32 H4          79.6700   141.9610    15.6260 h1         1 H7U       0.068200
     33 H5          79.6320   138.9090    15.5010 hc         1 H7U       0.054700
     34 H6          78.6610   139.8310    13.4150 hc         1 H7U       0.047950
     35 H7          77.6310   140.9320    14.3260 hc         1 H7U       0.047950
     36 H8          77.8150   140.8790    17.0270 hc         1 H7U       0.047950
     37 H9          78.9460   139.7410    17.7490 hc         1 H7U       0.047950
     38 H10         84.8680   138.6400    15.0190 hc         1 H7U       0.048700
     39 H11         84.6800   137.0730    14.2160 hc         1 H7U       0.048700
     40 H12         86.1180   138.0650    13.8940 hc         1 H7U       0.048700
     41 H13         78.8680   144.0220    21.3230 h1         1 H7U       0.044367
     42 H14         78.8420   143.4490    19.6420 h1         1 H7U       0.044367
     43 H15         80.0610   142.8210    20.7850 h1         1 H7U       0.044367
     44 H16         80.7920   142.6380    18.5240 ha         1 H7U       0.140000
     45 H17         82.0240   146.6700    19.3900 ha         1 H7U       0.132000
     46 H18         83.6810   146.5650    17.5450 ha         1 H7U       0.135000
     47 H19         83.0740   140.2370    14.7310 ha         1 H7U       0.134000
     48 H20         85.7980   144.3300    14.0020 ha         1 H7U       0.135000
     49 H21         77.4860   137.8540    14.3500 h1         1 H7U       0.052450
     50 H22         76.3130   138.9600    13.6080 h1         1 H7U       0.052450
     51 H23         76.5930   138.8800    17.8320 h1         1 H7U       0.052450
     52 H24         77.6540   137.8050    16.9010 h1         1 H7U       0.052450
     53 H25         84.0960   136.9910    11.6640 hc         1 H7U       0.048700
     54 H26         83.9730   138.5150    10.7620 hc         1 H7U       0.048700
     55 H27         85.5610   137.9390    11.3230 hc         1 H7U       0.048700
     56 H28         75.8280   139.8470    15.7790 hn         1 H7U       0.403000
@<TRIPOS>BOND
     1     1    17 ar  
     2     1    18 ar  
     3     1    24 ar  
     4     2    18 ar  
     5     2    19 ar  
     6     2    29 1   
     7     3     8 1   
     8     3    23 1   
     9     3    26 1   
    10     3    30 1   
    11     4     5 1   
    12     4    28 1   
    13     4    31 1   
    14     4    32 1   
    15     5     6 1   
    16     5     7 1   
    17     5    33 1   
    18     6    21 1   
    19     6    34 1   
    20     6    35 1   
    21     7    22 1   
    22     7    36 1   
    23     7    37 1   
    24     8    38 1   
    25     8    39 1   
    26     8    40 1   
    27     9    27 1   
    28     9    41 1   
    29     9    42 1   
    30     9    43 1   
    31    10    11 ar  
    32    10    14 ar  
    33    10    44 1   
    34    11    12 ar  
    35    11    27 1   
    36    12    13 ar  
    37    12    45 1   
    38    13    15 ar  
    39    13    46 1   
    40    14    15 ar  
    41    14    20 ar  
    42    15    24 ar  
    43    16    17 ar  
    44    16    19 ar  
    45    16    47 1   
    46    17    20 ar  
    47    18    48 1   
    48    19    26 1   
    49    20    28 1   
    50    21    25 1   
    51    21    49 1   
    52    21    50 1   
    53    22    25 1   
    54    22    51 1   
    55    22    52 1   
    56    23    53 1   
    57    23    54 1   
    58    23    55 1   
    59    25    56 1   
@<TRIPOS>SUBSTRUCTURE
     1 H7U         1 TEMP              0 ****  ****    0 ROOT
