@<TRIPOS>MOLECULE
H7V
   31    31     1     0     0
SMALL
bcc


@<TRIPOS>ATOM
      1 N            1.4630     1.4230    -0.6320 n7         1 H7V      -0.807200
      2 CA           1.3860     0.1920     0.1320 c3         1 H7V       0.023500
      3 C            2.6880    -0.6460     0.1340 c          1 H7V       0.902600
      4 O            3.4640    -0.4960    -0.8330 o          1 H7V      -0.840300
      5 CB           0.2480    -0.6890    -0.3960 c3         1 H7V      -0.048400
      6 C01         -1.1460    -0.0660    -0.3470 c6         1 H7V      -0.057700
      7 C02         -1.6180     0.1960     1.0830 c6         1 H7V      -0.069900
      8 C03         -3.0360     0.7600     1.1310 c6         1 H7V      -0.072900
      9 C04         -4.0230    -0.1370     0.3930 c6         1 H7V      -0.070400
     10 C05         -3.5670    -0.3880    -1.0400 c6         1 H7V      -0.072900
     11 C06         -2.1520    -0.9550    -1.0800 c6         1 H7V      -0.069900
     12 C07          2.2880     2.4300     0.0050 c3         1 H7V       0.160100
     13 OXT          2.8350    -1.4410     1.0860 o          1 H7V      -0.840300
     14 H            1.8790     1.1930    -1.5280 hn         1 H7V       0.355800
     15 HA           1.1610     0.4620     1.1690 h1         1 H7V       0.038700
     16 HB2          0.4780    -0.9630    -1.4340 hc         1 H7V       0.039700
     17 HB1          0.2400    -1.6250     0.1710 hc         1 H7V       0.039700
     18 H07         -1.1040     0.8970    -0.8700 hc         1 H7V       0.056700
     19 H09         -1.5840    -0.7430     1.6500 hc         1 H7V       0.037200
     20 H10         -0.9380     0.8850     1.5900 hc         1 H7V       0.037200
     21 H11         -3.3490     0.8920     2.1710 hc         1 H7V       0.025700
     22 H12         -3.0440     1.7580     0.6800 hc         1 H7V       0.025700
     23 H14         -4.1010    -1.0960     0.9190 hc         1 H7V       0.024200
     24 H13         -5.0220     0.3040     0.4040 hc         1 H7V       0.024200
     25 H16         -4.2590    -1.0680    -1.5450 hc         1 H7V       0.025700
     26 H15         -3.5950     0.5520    -1.6010 hc         1 H7V       0.025700
     27 H17         -1.8330    -1.0930    -2.1180 hc         1 H7V       0.037200
     28 H18         -2.1510    -1.9530    -0.6250 hc         1 H7V       0.037200
     29 H04          3.3120     2.1060     0.2350 h1         1 H7V       0.011700
     30 H03          2.3580     3.3120    -0.6340 h1         1 H7V       0.011700
     31 H02          1.8260     2.7440     0.9430 h1         1 H7V       0.011700
@<TRIPOS>BOND
     1     1     2 1   
     2     1    12 1   
     3     1    14 1   
     4     2     3 1   
     5     2     5 1   
     6     2    15 1   
     7     3     4 1   
     8     3    13 1   
     9     5     6 1   
    10     5    16 1   
    11     5    17 1   
    12     6     7 1   
    13     6    11 1   
    14     6    18 1   
    15     7     8 1   
    16     7    19 1   
    17     7    20 1   
    18     8     9 1   
    19     8    21 1   
    20     8    22 1   
    21     9    10 1   
    22     9    23 1   
    23     9    24 1   
    24    10    11 1   
    25    10    25 1   
    26    10    26 1   
    27    11    27 1   
    28    11    28 1   
    29    12    29 1   
    30    12    30 1   
    31    12    31 1   
@<TRIPOS>SUBSTRUCTURE
     1 H7V         1 TEMP              0 ****  ****    0 ROOT
