@<TRIPOS>MOLECULE
H7V
   31    31     1     0     0
SMALL
No Charge or Current Charge


@<TRIPOS>ATOM
      1 N            1.5330     1.4840    -0.6030 n7         1 H7V      -0.862400
      2 CA           1.4110     0.1860     0.1510 c3         1 H7V       0.023500
      3 C            2.7430    -0.6660     0.2110 c          1 H7V       0.692000
      4 O            3.3050    -0.9540    -0.8390 o          1 H7V      -0.735000
      5 CB           0.2560    -0.6690    -0.4450 c3         1 H7V      -0.048400
      6 C01         -1.1860    -0.0650    -0.3640 c6         1 H7V      -0.057700
      7 C02         -1.6610     0.1620     1.1020 c6         1 H7V      -0.069900
      8 C03         -3.1000     0.7340     1.1560 c6         1 H7V      -0.072900
      9 C04         -4.0960    -0.1710     0.3930 c6         1 H7V      -0.070400
     10 C05         -3.6370    -0.3920    -1.0670 c6         1 H7V      -0.072900
     11 C06         -2.2010    -0.9700    -1.1210 c6         1 H7V      -0.069900
     12 C07          2.4240     2.4870     0.0080 c3         1 H7V       0.160100
     13 OXT          3.2020    -0.9500     1.3100 o          1 H7V      -0.735000
     14 H            1.9040     1.2640    -1.5360 hn         1 H7V       0.411000
     15 HA           1.1500     0.4050     1.1950 h1         1 H7V       0.038700
     16 HB2          0.4990    -0.8870    -1.4930 hc         1 H7V       0.039700
     17 HB1          0.2590    -1.6400     0.0650 hc         1 H7V       0.039700
     18 H07         -1.1520     0.9080    -0.8740 hc         1 H7V       0.056700
     19 H09         -1.6210    -0.7840     1.6590 hc         1 H7V       0.037200
     20 H10         -0.9880     0.8580     1.6200 hc         1 H7V       0.037200
     21 H11         -3.4200     0.8390     2.2020 hc         1 H7V       0.025700
     22 H12         -3.1130     1.7440     0.7230 hc         1 H7V       0.025700
     23 H14         -4.1840    -1.1400     0.9050 hc         1 H7V       0.024200
     24 H13         -5.0970     0.2810     0.4050 hc         1 H7V       0.024200
     25 H16         -4.3320    -1.0740    -1.5770 hc         1 H7V       0.025700
     26 H15         -3.6740     0.5600    -1.6160 hc         1 H7V       0.025700
     27 H17         -1.8940    -1.0820    -2.1700 hc         1 H7V       0.037200
     28 H18         -2.1970    -1.9790    -0.6870 hc         1 H7V       0.037200
     29 H04          3.4500     2.1040     0.0870 h1         1 H7V       0.011700
     30 H03          2.4460     3.4000    -0.6010 h1         1 H7V       0.011700
     31 H02          2.0760     2.7550     1.0150 h1         1 H7V       0.011700
@<TRIPOS>BOND
     1     1     2 1   
     2     1    12 1   
     3     1    14 1   
     4     2     3 1   
     5     2     5 1   
     6     2    15 1   
     7     3     4 1   
     8     3    13 1   
     9     5     6 1   
    10     5    16 1   
    11     5    17 1   
    12     6     7 1   
    13     6    11 1   
    14     6    18 1   
    15     7     8 1   
    16     7    19 1   
    17     7    20 1   
    18     8     9 1   
    19     8    21 1   
    20     8    22 1   
    21     9    10 1   
    22     9    23 1   
    23     9    24 1   
    24    10    11 1   
    25    10    25 1   
    26    10    26 1   
    27    11    27 1   
    28    11    28 1   
    29    12    29 1   
    30    12    30 1   
    31    12    31 1   
@<TRIPOS>SUBSTRUCTURE
     1 H7V         1 TEMP              0 ****  ****    0 ROOT
