@<TRIPOS>MOLECULE
H7W
   55    58     1     0     0
SMALL
abcg2


@<TRIPOS>ATOM
      1 C1           9.3880    23.0550    20.7060 c          1 H7W       0.577600
      2 C3          10.1680    22.8520    21.9680 ca         1 H7W      -0.127600
      3 C4           7.9100    22.1540    22.3020 c5         1 H7W       0.153000
      4 C5           9.2730    22.3340    22.9060 ca         1 H7W      -0.098300
      5 C6          11.5120    23.0840    22.3290 ca         1 H7W      -0.075600
      6 C9           7.0690    22.8240    19.9390 c6         1 H7W       0.119700
      7 C11          5.7360    23.2590    20.5410 c6         1 H7W      -0.088900
      8 N2           8.1170    22.6570    20.9450 n          1 H7W      -0.397800
      9 C12          6.8830    21.5840    19.0600 c6         1 H7W      -0.088900
     10 C13          4.7110    23.4580    19.4270 c6         1 H7W       0.175800
     11 C14          5.8020    21.8470    18.0160 c6         1 H7W       0.175800
     12 C23          3.3530    23.3500    16.7080 c6         1 H7W      -0.087900
     13 C8          12.6340    23.6370    21.4740 c          1 H7W       0.600700
     14 C24          2.1800    23.1690    15.7400 c6         1 H7W      -0.072400
     15 C25          0.8910    21.9540    17.5370 c6         1 H7W      -0.072400
     16 C26          0.8500    23.0670    16.4880 c6         1 H7W      -0.076400
     17 O10          9.7730    23.5090    19.6200 o          1 H7W      -0.581000
     18 C16          3.3970    22.2090    17.7390 c6         1 H7W       0.190500
     19 C18          9.6530    22.0280    24.2010 ca         1 H7W      -0.087000
     20 C19          7.4270    20.7040    22.3630 c3         1 H7W      -0.097100
     21 C20         11.8760    22.7710    23.6410 ca         1 H7W      -0.076000
     22 C22          2.0700    22.1320    18.4980 c6         1 H7W      -0.087900
     23 N7           4.5470    22.2290    18.6560 n3         1 H7W      -0.742600
     24 C21         10.9740    22.2550    24.5640 ca         1 H7W      -0.094000
     25 O15         13.7660    23.7640    21.9540 o          1 H7W      -0.636100
     26 N17         12.3550    23.9730    20.2110 nt         1 H7W      -0.607000
     27 H1           7.1880    22.7940    22.8180 h1         1 H7W       0.070700
     28 H2           7.4220    23.6320    19.2940 h1         1 H7W       0.075700
     29 H3           5.8640    24.1920    21.0960 hc         1 H7W       0.054200
     30 H4           5.3600    22.5040    21.2340 hc         1 H7W       0.054200
     31 H5           6.5910    20.7310    19.6740 hc         1 H7W       0.054200
     32 H6           7.8250    21.3390    18.5670 hc         1 H7W       0.054200
     33 H7           5.0380    24.2970    18.7910 h1         1 H7W       0.035950
     34 H8           3.7540    23.7380    19.8640 h1         1 H7W       0.035950
     35 H9           5.6300    20.9440    17.4270 h1         1 H7W       0.035950
     36 H10          6.1610    22.6250    17.3200 h1         1 H7W       0.035950
     37 H12          3.2420    24.3050    17.2300 hc         1 H7W       0.043200
     38 H13          2.3360    22.2560    15.1550 hc         1 H7W       0.039950
     39 H14          2.1520    23.9980    15.0270 hc         1 H7W       0.039950
     40 H15         -0.0460    21.9260    18.0980 hc         1 H7W       0.039950
     41 H16          0.9860    20.9870    17.0300 hc         1 H7W       0.039950
     42 H17          0.6440    24.0220    16.9850 hc         1 H7W       0.039700
     43 H18          0.0310    22.8930    15.7850 hc         1 H7W       0.039700
     44 H19          3.4970    21.2720    17.1800 h1         1 H7W       0.053700
     45 H20          8.9410    21.6250    24.9100 ha         1 H7W       0.122000
     46 H21          7.3820    20.3840    23.4040 hc         1 H7W       0.050367
     47 H22          6.4310    20.6010    21.9360 hc         1 H7W       0.050367
     48 H23          8.1140    20.0520    21.8230 hc         1 H7W       0.050367
     49 H24         12.9020    22.9460    23.9290 ha         1 H7W       0.150000
     50 H25          1.9190    23.0500    19.0760 hc         1 H7W       0.043200
     51 H26          2.1140    21.3060    19.2120 hc         1 H7W       0.043200
     52 H28         11.3070    22.0310    25.5690 ha         1 H7W       0.123000
     53 H29         13.1050    24.3420    19.6480 hn         1 H7W       0.340500
     54 H30         11.4130    23.8680    19.8220 hn         1 H7W       0.340500
     55 H11          4.2930    23.3950    16.1540 hc         1 H7W       0.043200
@<TRIPOS>BOND
     1     1     2 1   
     2     1     8 1   
     3     1    17 2   
     4     2     4 ar  
     5     2     5 ar  
     6     3     4 1   
     7     3     8 1   
     8     3    20 1   
     9     3    27 1   
    10     4    19 ar  
    11     5    13 1   
    12     5    21 ar  
    13     6     7 1   
    14     6     8 1   
    15     6     9 1   
    16     6    28 1   
    17     7    10 1   
    18     7    29 1   
    19     7    30 1   
    20     9    11 1   
    21     9    31 1   
    22     9    32 1   
    23    10    23 1   
    24    10    33 1   
    25    10    34 1   
    26    11    23 1   
    27    11    35 1   
    28    11    36 1   
    29    12    14 1   
    30    12    18 1   
    31    12    37 1   
    32    12    55 1   
    33    13    25 2   
    34    13    26 1   
    35    14    16 1   
    36    14    38 1   
    37    14    39 1   
    38    15    16 1   
    39    15    22 1   
    40    15    40 1   
    41    15    41 1   
    42    16    42 1   
    43    16    43 1   
    44    18    22 1   
    45    18    23 1   
    46    18    44 1   
    47    19    24 ar  
    48    19    45 1   
    49    20    46 1   
    50    20    47 1   
    51    20    48 1   
    52    21    24 ar  
    53    21    49 1   
    54    22    50 1   
    55    22    51 1   
    56    24    52 1   
    57    26    53 1   
    58    26    54 1   
@<TRIPOS>SUBSTRUCTURE
     1 H7W         1 TEMP              0 ****  ****    0 ROOT
