@<TRIPOS>MOLECULE
H7W
   55    58     1     0     0
SMALL
No Charge or Current Charge


@<TRIPOS>ATOM
      1 C1           9.4320    23.0690    20.7310 c          1 H7W       0.577600
      2 C3          10.2270    22.8740    21.9830 ca         1 H7W      -0.127600
      3 C4           7.9240    22.1560    22.3880 c5         1 H7W       0.153000
      4 C5           9.3320    22.3720    22.9300 ca         1 H7W      -0.098300
      5 C6          11.6000    23.1180    22.3150 ca         1 H7W      -0.075600
      6 C9           7.0170    22.8440    20.0090 c6         1 H7W       0.119700
      7 C11          5.6430    23.1750    20.6470 c6         1 H7W      -0.088900
      8 N2           8.1140    22.6830    21.0040 n          1 H7W      -0.397800
      9 C12          6.8770    21.5950    19.1070 c6         1 H7W      -0.088900
     10 C13          4.5630    23.3520    19.5570 c6         1 H7W       0.175800
     11 C14          5.7670    21.8060    18.0530 c6         1 H7W       0.175800
     12 C23          3.3870    23.3300    16.6920 c6         1 H7W      -0.087900
     13 C8          12.6950    23.6540    21.3910 c          1 H7W       0.600700
     14 C24          2.2360    23.2290    15.6590 c6         1 H7W      -0.072400
     15 C25          0.7940    22.0100    17.3820 c6         1 H7W      -0.072400
     16 C26          0.8550    23.1680    16.3560 c6         1 H7W      -0.076400
     17 O10          9.8080    23.5040    19.6530 o          1 H7W      -0.581000
     18 C16          3.3310    22.1510    17.7140 c6         1 H7W       0.190500
     19 C18          9.7400    22.0950    24.2410 ca         1 H7W      -0.087000
     20 C19          7.5080    20.6700    22.4460 c3         1 H7W      -0.097100
     21 C20         11.9860    22.8260    23.6510 ca         1 H7W      -0.076000
     22 C22          1.9420    22.1220    18.4160 c6         1 H7W      -0.087900
     23 N7           4.4630    22.1320    18.6980 n3         1 H7W      -0.742600
     24 C21         11.0740    22.3260    24.5980 ca         1 H7W      -0.094000
     25 O15         13.8340    23.8540    21.7840 o          1 H7W      -0.636100
     26 N17         12.4420    23.9250    20.1020 nt         1 H7W      -0.607000
     27 H1           7.2020    22.7620    22.9520 h1         1 H7W       0.070700
     28 H2           7.2780    23.6920    19.3590 h1         1 H7W       0.075700
     29 H3           5.7190    24.0950    21.2410 hc         1 H7W       0.054200
     30 H4           5.3250    22.3800    21.3320 hc         1 H7W       0.054200
     31 H5           6.6420    20.7070    19.7070 hc         1 H7W       0.054200
     32 H6           7.8290    21.3900    18.6000 hc         1 H7W       0.054200
     33 H7           4.8160    24.2330    18.9500 h1         1 H7W       0.035950
     34 H8           3.6090    23.5650    20.0590 h1         1 H7W       0.035950
     35 H9           5.6780    20.8920    17.4490 h1         1 H7W       0.035950
     36 H10          6.0790    22.6150    17.3760 h1         1 H7W       0.035950
     37 H12          3.3160    24.2930    17.2140 hc         1 H7W       0.043200
     38 H13          2.3750    22.3330    15.0370 hc         1 H7W       0.039950
     39 H14          2.2710    24.0890    14.9770 hc         1 H7W       0.039950
     40 H15         -0.1750    22.0190    17.8980 hc         1 H7W       0.039950
     41 H16          0.8600    21.0460    16.8580 hc         1 H7W       0.039950
     42 H17          0.6550    24.1220    16.8640 hc         1 H7W       0.039700
     43 H18          0.0630    23.0440    15.6050 hc         1 H7W       0.039700
     44 H19          3.3900    21.2220    17.1260 h1         1 H7W       0.053700
     45 H20          9.0340    21.7060    24.9720 ha         1 H7W       0.122000
     46 H21          7.5130    20.3020    23.4780 hc         1 H7W       0.050367
     47 H22          6.4980    20.5170    22.0530 hc         1 H7W       0.050367
     48 H23          8.1960    20.0450    21.8640 hc         1 H7W       0.050367
     49 H24         13.0140    22.9880    23.9700 ha         1 H7W       0.150000
     50 H25          1.7880    23.0290    19.0140 hc         1 H7W       0.043200
     51 H26          1.8950    21.2730    19.1120 hc         1 H7W       0.043200
     52 H28         11.4070    22.1160    25.6120 ha         1 H7W       0.123000
     53 H29         13.1840    24.2790    19.5180 hn         1 H7W       0.340500
     54 H30         11.5140    23.7880    19.7280 hn         1 H7W       0.340500
     55 H11          4.3440    23.3330    16.1550 hc         1 H7W       0.043200
@<TRIPOS>BOND
     1     1     2 1   
     2     1     8 1   
     3     1    17 2   
     4     2     4 ar  
     5     2     5 ar  
     6     3     4 1   
     7     3     8 1   
     8     3    20 1   
     9     3    27 1   
    10     4    19 ar  
    11     5    13 1   
    12     5    21 ar  
    13     6     7 1   
    14     6     8 1   
    15     6     9 1   
    16     6    28 1   
    17     7    10 1   
    18     7    29 1   
    19     7    30 1   
    20     9    11 1   
    21     9    31 1   
    22     9    32 1   
    23    10    23 1   
    24    10    33 1   
    25    10    34 1   
    26    11    23 1   
    27    11    35 1   
    28    11    36 1   
    29    12    14 1   
    30    12    18 1   
    31    12    37 1   
    32    12    55 1   
    33    13    25 2   
    34    13    26 1   
    35    14    16 1   
    36    14    38 1   
    37    14    39 1   
    38    15    16 1   
    39    15    22 1   
    40    15    40 1   
    41    15    41 1   
    42    16    42 1   
    43    16    43 1   
    44    18    22 1   
    45    18    23 1   
    46    18    44 1   
    47    19    24 ar  
    48    19    45 1   
    49    20    46 1   
    50    20    47 1   
    51    20    48 1   
    52    21    24 ar  
    53    21    49 1   
    54    22    50 1   
    55    22    51 1   
    56    24    52 1   
    57    26    53 1   
    58    26    54 1   
@<TRIPOS>SUBSTRUCTURE
     1 H7W         1 TEMP              0 ****  ****    0 ROOT
