@<TRIPOS>MOLECULE
H7X
   52    55     1     0     0
SMALL
bcc


@<TRIPOS>ATOM
      1 C10         83.3290   143.1760    15.6880 ca         1 H7X       0.388600
      2 C13         83.7300   140.7180    14.4010 ca         1 H7X       0.178100
      3 C20         77.9030   141.1180    15.1230 c6         1 H7X      -0.108400
      4 C21         77.8200   140.7940    13.6320 c6         1 H7X       0.147800
      5 C24         79.4420   139.1750    15.3860 c6         1 H7X      -0.108400
      6 C26         79.8310   146.2400    21.2860 c3         1 H7X       0.133700
      7 C01         80.7420   144.8570    19.5710 ca         1 H7X       0.134100
      8 C02         81.4380   145.9580    18.9930 ca         1 H7X      -0.226000
      9 C03         82.2270   145.7640    17.9030 ca         1 H7X      -0.101300
     10 C04         82.3750   144.4800    17.3130 ca         1 H7X       0.341600
     11 C05         81.6650   143.3760    17.8850 ca         1 H7X      -0.063300
     12 C06         80.8550   143.6060    19.0230 ca         1 H7X      -0.186000
     13 C08         82.8990   140.7690    15.4870 ca         1 H7X      -0.245000
     14 C09         82.6690   141.9910    16.1630 ca         1 H7X      -0.038300
     15 C11         84.1960   143.0910    14.5540 ca         1 H7X      -0.094900
     16 C12         84.3900   141.8910    13.9380 ca         1 H7X      -0.230000
     17 C16         81.8200   142.1220    17.2730 ca         1 H7X       0.000900
     18 C18         84.7270   139.3950    12.6840 c3         1 H7X       0.132700
     19 C19         79.3130   140.9580    17.1870 c3         1 H7X       0.018700
     20 C23         79.3080   138.9180    13.8870 c6         1 H7X       0.147800
     21 C25         79.2430   140.6540    15.6980 c6         1 H7X      -0.060700
     22 C27         84.8830   144.3490    14.0400 c          1 H7X       0.940200
     23 N07         83.1710   144.3640    16.2560 nb         1 H7X      -0.560000
     24 N22         78.0590   139.3950    13.3150 n7         1 H7X      -0.794200
     25 O14         79.9600   144.9790    20.6570 os         1 H7X      -0.328900
     26 O15         83.8830   139.5190    13.8120 os         1 H7X      -0.333900
     27 O28         84.1920   145.0700    13.3030 o          1 H7X      -0.804800
     28 O29         86.0630   144.5030    14.3960 o          1 H7X      -0.804800
     29 S17         80.9670   140.7100    17.9260 ss         1 H7X      -0.323000
     30 H3          78.5630   141.3950    13.0970 h1         1 H7X       0.052700
     31 H4          76.8430   141.0800    13.2360 h1         1 H7X       0.052700
     32 H5          78.6870   138.5890    15.9260 hc         1 H7X       0.042200
     33 H6          80.4170   138.8280    15.7370 hc         1 H7X       0.042200
     34 H7          79.1730   146.0890    22.1380 h1         1 H7X       0.033367
     35 H8          80.7900   146.6180    21.6480 h1         1 H7X       0.033367
     36 H9          79.3820   146.9850    20.6250 h1         1 H7X       0.033367
     37 H10         81.3520   146.9520    19.4110 ha         1 H7X       0.125000
     38 H11         82.7630   146.5930    17.4590 ha         1 H7X       0.154000
     39 H12         80.3300   142.7760    19.4770 ha         1 H7X       0.152000
     40 H13         82.4140   139.8670    15.8340 ha         1 H7X       0.147000
     41 H14         85.0520   141.8400    13.0820 ha         1 H7X       0.142000
     42 H15         84.6940   138.3480    12.3930 h1         1 H7X       0.036033
     43 H16         84.3820   140.0020    11.8430 h1         1 H7X       0.036033
     44 H17         85.7620   139.6610    12.9110 h1         1 H7X       0.036033
     45 H18         79.0010   141.9840    17.3930 h1         1 H7X       0.062700
     46 H19         78.6490   140.2960    17.7490 h1         1 H7X       0.062700
     47 H20         79.4070   137.8520    13.6740 h1         1 H7X       0.052700
     48 H21         80.1330   139.4180    13.3670 h1         1 H7X       0.052700
     49 H22         80.0330   141.2250    15.1930 hc         1 H7X       0.078700
     50 H23         77.2970   138.8410    13.6900 hn         1 H7X       0.334800
     51 H1          77.7760   142.1940    15.2770 hc         1 H7X       0.042200
     52 H2          77.0820   140.6220    15.6540 hc         1 H7X       0.042200
@<TRIPOS>BOND
     1     1    14 ar  
     2     1    15 ar  
     3     1    23 ar  
     4     2    13 ar  
     5     2    16 ar  
     6     2    26 1   
     7     3     4 1   
     8     3    21 1   
     9     3    51 1   
    10     3    52 1   
    11     4    24 1   
    12     4    30 1   
    13     4    31 1   
    14     5    20 1   
    15     5    21 1   
    16     5    32 1   
    17     5    33 1   
    18     6    25 1   
    19     6    34 1   
    20     6    35 1   
    21     6    36 1   
    22     7     8 ar  
    23     7    12 ar  
    24     7    25 1   
    25     8     9 ar  
    26     8    37 1   
    27     9    10 ar  
    28     9    38 1   
    29    10    11 ar  
    30    10    23 ar  
    31    11    12 ar  
    32    11    17 ar  
    33    12    39 1   
    34    13    14 ar  
    35    13    40 1   
    36    14    17 ar  
    37    15    16 ar  
    38    15    22 1   
    39    16    41 1   
    40    17    29 1   
    41    18    26 1   
    42    18    42 1   
    43    18    43 1   
    44    18    44 1   
    45    19    21 1   
    46    19    29 1   
    47    19    45 1   
    48    19    46 1   
    49    20    24 1   
    50    20    47 1   
    51    20    48 1   
    52    21    49 1   
    53    22    27 1   
    54    22    28 1   
    55    24    50 1   
@<TRIPOS>SUBSTRUCTURE
     1 H7X         1 TEMP              0 ****  ****    0 ROOT
