@<TRIPOS>MOLECULE
H7X
   52    55     1     0     0
SMALL
No Charge or Current Charge


@<TRIPOS>ATOM
      1 C10         83.3820   143.1320    15.5950 ca         1 H7X       0.258000
      2 C13         83.9180   140.5960    14.4270 ca         1 H7X       0.178100
      3 C20         77.8050   141.2040    15.3990 c6         1 H7X      -0.108400
      4 C21         77.6430   141.1270    13.8600 c6         1 H7X       0.147800
      5 C24         79.5020   139.3270    15.2580 c6         1 H7X      -0.108400
      6 C26         79.5820   146.1650    21.2300 c3         1 H7X       0.156900
      7 C01         80.6830   144.7970    19.4960 ca         1 H7X       0.134100
      8 C02         81.2850   145.9160    18.8900 ca         1 H7X      -0.208000
      9 C03         82.1050   145.7400    17.7630 ca         1 H7X      -0.018000
     10 C04         82.3380   144.4620    17.2180 ca         1 H7X       0.211000
     11 C05         81.7230   143.3360    17.8230 ca         1 H7X       0.002000
     12 C06         80.9050   143.5200    18.9640 ca         1 H7X      -0.168000
     13 C08         83.0920   140.6950    15.5500 ca         1 H7X      -0.227000
     14 C09         82.8080   141.9490    16.1410 ca         1 H7X       0.027000
     15 C11         84.2190   143.0190    14.4620 ca         1 H7X      -0.029600
     16 C12         84.4820   141.7600    13.8790 ca         1 H7X      -0.212000
     17 C16         81.9510   142.0510    17.2680 ca         1 H7X      -0.126000
     18 C18         84.9710   139.1290    12.7450 c3         1 H7X       0.155900
     19 C19         79.3840   140.7960    17.3830 c3         1 H7X       0.066600
     20 C23         79.3000   139.3040    13.7240 c6         1 H7X       0.147800
     21 C25         79.2210   140.7420    15.8370 c6         1 H7X      -0.060700
     22 C27         84.8370   144.2520    13.8630 c          1 H7X       0.729600
     23 N07         83.1370   144.3500    16.1350 nb         1 H7X      -0.560000
     24 N22         77.9360   139.7610    13.3620 n7         1 H7X      -0.849400
     25 O14         79.8730   144.9010    20.6080 os         1 H7X      -0.352100
     26 O15         84.1430   139.3410    13.9030 os         1 H7X      -0.357100
     27 O28         84.2590   144.7880    12.9260 o          1 H7X      -0.699500
     28 O29         85.9500   144.5850    14.2520 o          1 H7X      -0.699500
     29 S17         81.1370   140.5920    17.9470 ss         1 H7X      -0.244000
     30 H3          78.3250   141.8480    13.3830 h1         1 H7X       0.052700
     31 H4          76.6170   141.4110    13.5830 h1         1 H7X       0.052700
     32 H5          78.8350   138.5900    15.7270 hc         1 H7X       0.042200
     33 H6          80.5250   139.0100    15.4920 hc         1 H7X       0.042200
     34 H7          78.9220   146.0200    22.0940 h1         1 H7X       0.033367
     35 H8          80.5030   146.6470    21.5820 h1         1 H7X       0.033367
     36 H9          79.0780   146.8390    20.5260 h1         1 H7X       0.033367
     37 H10         81.1350   146.9200    19.2750 ha         1 H7X       0.107000
     38 H11         82.5710   146.6070    17.3010 ha         1 H7X       0.136000
     39 H12         80.4360   142.6780    19.4620 ha         1 H7X       0.134000
     40 H13         82.6830   139.7770    15.9550 ha         1 H7X       0.129000
     41 H14         85.1290   141.7160    13.0080 ha         1 H7X       0.124000
     42 H15         85.0130   138.0610    12.4980 h1         1 H7X       0.036033
     43 H16         84.5680   139.6630    11.8750 h1         1 H7X       0.036033
     44 H17         85.9950   139.4760    12.9290 h1         1 H7X       0.036033
     45 H18         79.0180   141.7650    17.7460 h1         1 H7X       0.062700
     46 H19         78.7690   140.0110    17.8400 h1         1 H7X       0.062700
     47 H20         79.4610   138.2820    13.3460 h1         1 H7X       0.052700
     48 H21         80.0490   139.9540    13.2460 h1         1 H7X       0.052700
     49 H22         79.9520   141.4470    15.4180 hc         1 H7X       0.078700
     50 H23         77.2610   139.1160    13.7870 hn         1 H7X       0.390000
     51 H1          77.6260   142.2350    15.7320 hc         1 H7X       0.042200
     52 H2          77.0390   140.5820    15.8820 hc         1 H7X       0.042200
@<TRIPOS>BOND
     1     1    14 ar  
     2     1    15 ar  
     3     1    23 ar  
     4     2    13 ar  
     5     2    16 ar  
     6     2    26 1   
     7     3     4 1   
     8     3    21 1   
     9     3    51 1   
    10     3    52 1   
    11     4    24 1   
    12     4    30 1   
    13     4    31 1   
    14     5    20 1   
    15     5    21 1   
    16     5    32 1   
    17     5    33 1   
    18     6    25 1   
    19     6    34 1   
    20     6    35 1   
    21     6    36 1   
    22     7     8 ar  
    23     7    12 ar  
    24     7    25 1   
    25     8     9 ar  
    26     8    37 1   
    27     9    10 ar  
    28     9    38 1   
    29    10    11 ar  
    30    10    23 ar  
    31    11    12 ar  
    32    11    17 ar  
    33    12    39 1   
    34    13    14 ar  
    35    13    40 1   
    36    14    17 ar  
    37    15    16 ar  
    38    15    22 1   
    39    16    41 1   
    40    17    29 1   
    41    18    26 1   
    42    18    42 1   
    43    18    43 1   
    44    18    44 1   
    45    19    21 1   
    46    19    29 1   
    47    19    45 1   
    48    19    46 1   
    49    20    24 1   
    50    20    47 1   
    51    20    48 1   
    52    21    49 1   
    53    22    27 1   
    54    22    28 1   
    55    24    50 1   
@<TRIPOS>SUBSTRUCTURE
     1 H7X         1 TEMP              0 ****  ****    0 ROOT
