@<TRIPOS>MOLECULE
H7Y
   24    24     1     0     0
SMALL
bcc


@<TRIPOS>ATOM
      1 CAA          4.8260    -0.5270    -0.0090 c3         1 H7Y      -0.058900
      2 CAD          3.4960     0.1480    -0.0430 c2         1 H7Y      -0.155200
      3 CAE          2.3270    -0.4970    -0.0400 ce         1 H7Y      -0.115200
      4 CAJ          0.9860     0.0950    -0.0740 ca         1 H7Y      -0.050800
      5 CAH         -0.1200    -0.7640    -0.0240 ca         1 H7Y      -0.163000
      6 CAF          0.7490     1.4650    -0.1570 ca         1 H7Y      -0.112000
      7 CAG         -0.5450     1.9630    -0.1860 ca         1 H7Y      -0.143000
      8 CAK         -1.6360     1.1100    -0.1340 ca         1 H7Y       0.122100
      9 OAC         -2.8810     1.6260    -0.1640 oh         1 H7Y      -0.495100
     10 CAL         -1.4150    -0.2730    -0.0510 ca         1 H7Y       0.045100
     11 OAI         -2.5370    -1.0240    -0.0050 os         1 H7Y      -0.345900
     12 CAB         -2.4090    -2.4300     0.0670 c3         1 H7Y       0.134700
     13 HAA1         4.7280    -1.6130     0.0210 hc         1 H7Y       0.040700
     14 HAA2         5.4230    -0.2650    -0.8850 hc         1 H7Y       0.040700
     15 HAA3         5.4040    -0.2130     0.8630 hc         1 H7Y       0.040700
     16 HAD          3.5190     1.2340    -0.0710 ha         1 H7Y       0.118000
     17 HAE          2.3480    -1.5840    -0.0070 ha         1 H7Y       0.116000
     18 HAH          0.0530    -1.8310     0.0410 ha         1 H7Y       0.133000
     19 HAF          1.5720     2.1660    -0.2000 ha         1 H7Y       0.134000
     20 HAG         -0.7150     3.0310    -0.2490 ha         1 H7Y       0.148000
     21 HAC         -3.5350     0.9180    -0.1260 ho         1 H7Y       0.442000
     22 HAB1        -3.4190    -2.8330     0.0810 h1         1 H7Y       0.041700
     23 HAB2        -1.8780    -2.8330    -0.7990 h1         1 H7Y       0.041700
     24 HAB3        -1.8910    -2.7440     0.9770 h1         1 H7Y       0.041700
@<TRIPOS>BOND
     1     1     2 1   
     2     1    13 1   
     3     1    14 1   
     4     1    15 1   
     5     2     3 2   
     6     2    16 1   
     7     3     4 1   
     8     3    17 1   
     9     4     5 ar  
    10     4     6 ar  
    11     5    10 ar  
    12     5    18 1   
    13     6     7 ar  
    14     6    19 1   
    15     7     8 ar  
    16     7    20 1   
    17     8     9 1   
    18     8    10 ar  
    19     9    21 1   
    20    10    11 1   
    21    11    12 1   
    22    12    22 1   
    23    12    23 1   
    24    12    24 1   
@<TRIPOS>SUBSTRUCTURE
     1 H7Y         1 TEMP              0 ****  ****    0 ROOT
