@<TRIPOS>MOLECULE
H7Y
   24    24     1     0     0
SMALL
No Charge or Current Charge


@<TRIPOS>ATOM
      1 CAA          4.8810    -0.4970     0.0440 c3         1 H7Y      -0.058900
      2 CAD          3.5110     0.1440     0.0670 c2         1 H7Y      -0.205200
      3 CAE          2.3490    -0.5110    -0.1530 ce         1 H7Y      -0.165200
      4 CAJ          0.9810     0.0880    -0.1310 ca         1 H7Y      -0.050800
      5 CAH         -0.1370    -0.7710    -0.0850 ca         1 H7Y      -0.145000
      6 CAF          0.7760     1.4840    -0.1650 ca         1 H7Y      -0.094000
      7 CAG         -0.5260     2.0130    -0.1460 ca         1 H7Y      -0.125000
      8 CAK         -1.6330     1.1540    -0.0950 ca         1 H7Y       0.122100
      9 OAC         -2.8970     1.6700    -0.0770 oh         1 H7Y      -0.534100
     10 CAL         -1.4480    -0.2430    -0.0650 ca         1 H7Y       0.045100
     11 OAI         -2.5740    -1.0490    -0.0170 os         1 H7Y      -0.369100
     12 CAB         -2.4900    -2.4870     0.0160 c3         1 H7Y       0.157900
     13 HAA1         4.9610    -1.2850     0.8030 hc         1 H7Y       0.040700
     14 HAA2         5.0890    -0.9490    -0.9330 hc         1 H7Y       0.040700
     15 HAA3         5.6670     0.2410     0.2450 hc         1 H7Y       0.040700
     16 HAD          3.5290     1.2100     0.2940 ha         1 H7Y       0.168000
     17 HAE          2.3720    -1.5830    -0.3570 ha         1 H7Y       0.166000
     18 HAH          0.0300    -1.8430    -0.0610 ha         1 H7Y       0.115000
     19 HAF          1.6160     2.1700    -0.2170 ha         1 H7Y       0.116000
     20 HAG         -0.6760     3.0890    -0.1740 ha         1 H7Y       0.130000
     21 HAC         -3.5080     0.9000    -0.0420 ho         1 H7Y       0.481000
     22 HAB1        -3.4950    -2.9260     0.0520 h1         1 H7Y       0.041700
     23 HAB2        -1.9850    -2.8690    -0.8800 h1         1 H7Y       0.041700
     24 HAB3        -1.9400    -2.8250     0.9030 h1         1 H7Y       0.041700
@<TRIPOS>BOND
     1     1     2 1   
     2     1    13 1   
     3     1    14 1   
     4     1    15 1   
     5     2     3 2   
     6     2    16 1   
     7     3     4 1   
     8     3    17 1   
     9     4     5 ar  
    10     4     6 ar  
    11     5    10 ar  
    12     5    18 1   
    13     6     7 ar  
    14     6    19 1   
    15     7     8 ar  
    16     7    20 1   
    17     8     9 1   
    18     8    10 ar  
    19     9    21 1   
    20    10    11 1   
    21    11    12 1   
    22    12    22 1   
    23    12    23 1   
    24    12    24 1   
@<TRIPOS>SUBSTRUCTURE
     1 H7Y         1 TEMP              0 ****  ****    0 ROOT
