@<TRIPOS>MOLECULE
H7Z
   55    58     1     0     0
SMALL
No Charge or Current Charge


@<TRIPOS>ATOM
      1 C8          12.8370    23.1320    21.3640 c          1 H7Z       0.600700
      2 C9           7.3290    22.0420    19.5570 c6         1 H7Z       0.120700
      3 C11          6.5560    23.3680    19.4130 c6         1 H7Z      -0.088400
      4 C12          6.3100    20.8850    19.6690 c6         1 H7Z      -0.088400
      5 C13          5.5880    23.3150    18.2090 c6         1 H7Z       0.169800
      6 C14          5.3550    20.8790    18.4540 c6         1 H7Z       0.169800
      7 N7           4.6160    22.1760    18.3000 n3         1 H7Z      -0.733600
      8 C5           9.4010    21.7970    22.6810 ca         1 H7Z      -0.098300
      9 C3          10.3440    22.3260    21.7980 ca         1 H7Z      -0.127600
     10 C4           8.0110    21.6480    22.0740 c5         1 H7Z       0.153000
     11 N2           8.3070    22.0920    20.6790 n          1 H7Z      -0.397800
     12 C1           9.6270    22.5220    20.5000 c          1 H7Z       0.577600
     13 N17         12.6310    23.5250    20.0990 nt         1 H7Z      -0.606000
     14 C18          9.7430    21.4620    23.9970 ca         1 H7Z      -0.087000
     15 C19          6.9690    22.5210    22.8070 c3         1 H7Z      -0.097100
     16 C20         12.0180    22.2080    23.5480 ca         1 H7Z      -0.076000
     17 C21         11.0600    21.6700    24.4270 ca         1 H7Z      -0.094000
     18 C22          2.6110    20.9780    17.2560 c6         1 H7Z      -0.075400
     19 C24          1.8090    23.4770    15.8590 c6         1 H7Z      -0.073900
     20 C25          1.5670    20.9720    16.1120 c6         1 H7Z      -0.073900
     21 C26          0.8120    22.3140    16.0330 c6         1 H7Z      -0.075400
     22 C23          2.8540    23.5000    17.0020 c6         1 H7Z      -0.075400
     23 C16          3.6440    22.1520    17.1400 c6         1 H7Z       0.189500
     24 O10         10.0700    22.9490    19.4450 o          1 H7Z      -0.581000
     25 C6          11.6990    22.5550    22.2080 ca         1 H7Z      -0.074600
     26 O15         13.9690    23.2590    21.8040 o          1 H7Z      -0.636100
     27 H1           7.8950    21.8840    18.6260 h1         1 H7Z       0.076700
     28 H2           7.2610    24.1990    19.2780 hc         1 H7Z       0.054700
     29 H3           5.9860    23.5860    20.3250 hc         1 H7Z       0.054700
     30 H4           5.7140    20.9710    20.5850 hc         1 H7Z       0.054700
     31 H5           6.8400    19.9250    19.7220 hc         1 H7Z       0.054700
     32 H6           6.1740    23.2430    17.2800 h1         1 H7Z       0.035700
     33 H7           5.0700    24.2820    18.1930 h1         1 H7Z       0.035700
     34 H8           4.6640    20.0420    18.6160 h1         1 H7Z       0.035700
     35 H9           5.9310    20.6560    17.5430 h1         1 H7Z       0.035700
     36 H11          7.6940    20.5960    22.1010 h1         1 H7Z       0.070700
     37 H12         13.4010    23.9000    19.5670 hn         1 H7Z       0.340500
     38 H13         11.7150    23.4320    19.6820 hn         1 H7Z       0.340500
     39 H14          9.0020    21.0490    24.6770 ha         1 H7Z       0.122000
     40 H15          6.8920    22.2350    23.8620 hc         1 H7Z       0.050700
     41 H16          7.2460    23.5810    22.7670 hc         1 H7Z       0.050700
     42 H17          5.9710    22.4150    22.3700 hc         1 H7Z       0.050700
     43 H18         13.0280    22.3560    23.9250 ha         1 H7Z       0.150000
     44 H19         11.3420    21.4160    25.4470 ha         1 H7Z       0.123000
     45 H20          2.0960    21.0330    18.2250 hc         1 H7Z       0.045450
     46 H21          3.1170    20.0060    17.2240 hc         1 H7Z       0.045450
     47 H22          2.3210    23.3840    14.8920 hc         1 H7Z       0.039700
     48 H23          1.2650    24.4310    15.8340 hc         1 H7Z       0.039700
     49 H24          0.8520    20.1520    16.2650 hc         1 H7Z       0.039700
     50 H25          2.0690    20.7720    15.1550 hc         1 H7Z       0.039700
     51 H26          0.2160    22.4630    16.9440 hc         1 H7Z       0.040700
     52 H27          0.1040    22.2970    15.1920 hc         1 H7Z       0.040700
     53 H28          3.5340    24.3330    16.7870 hc         1 H7Z       0.045450
     54 H29          2.3560    23.7360    17.9520 hc         1 H7Z       0.045450
     55 H30          4.2080    22.0040    16.2070 h1         1 H7Z       0.021700
@<TRIPOS>BOND
     1     1    13 1   
     2     1    25 1   
     3     1    26 2   
     4     2     3 1   
     5     2     4 1   
     6     2    11 1   
     7     2    27 1   
     8     3     5 1   
     9     3    28 1   
    10     3    29 1   
    11     4     6 1   
    12     4    30 1   
    13     4    31 1   
    14     5     7 1   
    15     5    32 1   
    16     5    33 1   
    17     6     7 1   
    18     6    34 1   
    19     6    35 1   
    20     7    23 1   
    21     8     9 ar  
    22     8    10 1   
    23     8    14 ar  
    24     9    12 1   
    25     9    25 ar  
    26    10    11 1   
    27    10    15 1   
    28    10    36 1   
    29    11    12 1   
    30    12    24 2   
    31    13    37 1   
    32    13    38 1   
    33    14    17 ar  
    34    14    39 1   
    35    15    40 1   
    36    15    41 1   
    37    15    42 1   
    38    16    17 ar  
    39    16    25 ar  
    40    16    43 1   
    41    17    44 1   
    42    18    20 1   
    43    18    23 1   
    44    18    45 1   
    45    18    46 1   
    46    19    21 1   
    47    19    22 1   
    48    19    47 1   
    49    19    48 1   
    50    20    21 1   
    51    20    49 1   
    52    20    50 1   
    53    21    51 1   
    54    21    52 1   
    55    22    23 1   
    56    22    53 1   
    57    22    54 1   
    58    23    55 1   
@<TRIPOS>SUBSTRUCTURE
     1 H7Z         1 TEMP              0 ****  ****    0 ROOT
