@<TRIPOS>MOLECULE
H7Z
   55    58     1     0     0
SMALL
abcg2


@<TRIPOS>ATOM
      1 C8          12.7160    23.2510    21.4650 c          1 H7Z       0.600700
      2 C9           7.3550    22.1130    19.4910 c6         1 H7Z       0.120700
      3 C11          6.5130    23.3870    19.4120 c6         1 H7Z      -0.088400
      4 C12          6.4490    20.8880    19.4730 c6         1 H7Z      -0.088400
      5 C13          5.5810    23.3440    18.2050 c6         1 H7Z       0.169800
      6 C14          5.5250    20.9540    18.2620 c6         1 H7Z       0.169800
      7 N7           4.7100    22.1700    18.2570 n3         1 H7Z      -0.733600
      8 C5           9.3390    21.7370    22.6250 ca         1 H7Z      -0.098300
      9 C3          10.2660    22.3350    21.7690 ca         1 H7Z      -0.127600
     10 C4           8.0060    21.5880    21.9500 c5         1 H7Z       0.153000
     11 N2           8.2890    22.1150    20.6150 n          1 H7Z      -0.397800
     12 C1           9.5580    22.5600    20.4700 c          1 H7Z       0.577600
     13 N17         12.5300    23.5450    20.1740 nt         1 H7Z      -0.606000
     14 C18          9.6600    21.3710    23.9210 ca         1 H7Z      -0.087000
     15 C19          6.8890    22.3290    22.6880 c3         1 H7Z      -0.097100
     16 C20         11.8810    22.2210    23.5290 ca         1 H7Z      -0.076000
     17 C21         10.9520    21.6150    24.3670 ca         1 H7Z      -0.094000
     18 C22          2.5490    21.1540    17.6310 c6         1 H7Z      -0.075400
     19 C24          1.9930    23.3310    15.7620 c6         1 H7Z      -0.073900
     20 C25          1.4690    21.0080    16.5580 c6         1 H7Z      -0.073900
     21 C26          0.8840    22.3660    16.1760 c6         1 H7Z      -0.075400
     22 C23          3.0770    23.4640    16.8370 c6         1 H7Z      -0.075400
     23 C16          3.6780    22.1020    17.1990 c6         1 H7Z       0.189500
     24 O10         10.0000    23.0420    19.4180 o          1 H7Z      -0.581000
     25 C6          11.5760    22.5970    22.2190 ca         1 H7Z      -0.074600
     26 O15         13.7810    23.4880    22.0470 o          1 H7Z      -0.636100
     27 H1           7.9850    22.0800    18.5990 h1         1 H7Z       0.076700
     28 H2           7.1670    24.2580    19.3360 hc         1 H7Z       0.054700
     29 H3           5.9160    23.4960    20.3190 hc         1 H7Z       0.054700
     30 H4           5.8410    20.8410    20.3780 hc         1 H7Z       0.054700
     31 H5           7.0480    19.9760    19.4240 hc         1 H7Z       0.054700
     32 H6           6.1830    23.3560    17.2770 h1         1 H7Z       0.035700
     33 H7           4.9760    24.2460    18.2100 h1         1 H7Z       0.035700
     34 H8           4.8740    20.0830    18.2700 h1         1 H7Z       0.035700
     35 H9           6.1290    20.8950    17.3390 h1         1 H7Z       0.035700
     36 H11          7.7430    20.5290    21.8710 h1         1 H7Z       0.070700
     37 H12         13.2870    23.9960    19.6830 hn         1 H7Z       0.340500
     38 H13         11.6280    23.3930    19.7130 hn         1 H7Z       0.340500
     39 H14          8.9250    20.9070    24.5660 ha         1 H7Z       0.122000
     40 H15          6.7950    21.9280    23.6970 hc         1 H7Z       0.050700
     41 H16          7.1190    23.3940    22.7520 hc         1 H7Z       0.050700
     42 H17          5.9330    22.2020    22.1840 hc         1 H7Z       0.050700
     43 H18         12.8810    22.4170    23.8860 ha         1 H7Z       0.150000
     44 H19         11.2410    21.3370    25.3730 ha         1 H7Z       0.123000
     45 H20          2.1060    21.5620    18.5460 hc         1 H7Z       0.045450
     46 H21          2.9460    20.1700    17.8830 hc         1 H7Z       0.045450
     47 H22          2.4540    22.9710    14.8350 hc         1 H7Z       0.039700
     48 H23          1.5780    24.3180    15.5420 hc         1 H7Z       0.039700
     49 H24          0.6820    20.3390    16.9170 hc         1 H7Z       0.039700
     50 H25          1.9020    20.5360    15.6690 hc         1 H7Z       0.039700
     51 H26          0.3470    22.7820    17.0370 hc         1 H7Z       0.040700
     52 H27          0.1540    22.2570    15.3690 hc         1 H7Z       0.040700
     53 H28          3.8490    24.1400    16.4700 hc         1 H7Z       0.045450
     54 H29          2.6500    23.9180    17.7380 hc         1 H7Z       0.045450
     55 H30          4.1360    21.6980    16.2780 h1         1 H7Z       0.021700
@<TRIPOS>BOND
     1     1    13 1   
     2     1    25 1   
     3     1    26 2   
     4     2     3 1   
     5     2     4 1   
     6     2    11 1   
     7     2    27 1   
     8     3     5 1   
     9     3    28 1   
    10     3    29 1   
    11     4     6 1   
    12     4    30 1   
    13     4    31 1   
    14     5     7 1   
    15     5    32 1   
    16     5    33 1   
    17     6     7 1   
    18     6    34 1   
    19     6    35 1   
    20     7    23 1   
    21     8     9 ar  
    22     8    10 1   
    23     8    14 ar  
    24     9    12 1   
    25     9    25 ar  
    26    10    11 1   
    27    10    15 1   
    28    10    36 1   
    29    11    12 1   
    30    12    24 2   
    31    13    37 1   
    32    13    38 1   
    33    14    17 ar  
    34    14    39 1   
    35    15    40 1   
    36    15    41 1   
    37    15    42 1   
    38    16    17 ar  
    39    16    25 ar  
    40    16    43 1   
    41    17    44 1   
    42    18    20 1   
    43    18    23 1   
    44    18    45 1   
    45    18    46 1   
    46    19    21 1   
    47    19    22 1   
    48    19    47 1   
    49    19    48 1   
    50    20    21 1   
    51    20    49 1   
    52    20    50 1   
    53    21    51 1   
    54    21    52 1   
    55    22    23 1   
    56    22    53 1   
    57    22    54 1   
    58    23    55 1   
@<TRIPOS>SUBSTRUCTURE
     1 H7Z         1 TEMP              0 ****  ****    0 ROOT
