@<TRIPOS>MOLECULE
H80
   51    54     1     0     0
SMALL
No Charge or Current Charge


@<TRIPOS>ATOM
      1 C13         83.2900   144.9670    17.1160 ca         1 H80       0.243000
      2 C15         82.2050   146.2470    18.8970 ca         1 H80      -0.123000
      3 C17         80.1400   144.0680    21.1050 c3         1 H80       0.144900
      4 C20         80.3680   141.2810    16.9440 c3         1 H80       0.073600
      5 C21         80.2050   141.3980    15.4100 c5         1 H80      -0.099700
      6 C22         78.7550   141.6380    14.9400 c5         1 H80       0.133800
      7 C24         79.7630   140.3310    13.2650 c5         1 H80       0.130800
      8 C26         85.8910   145.0910    13.7390 c3         1 H80       0.215900
      9 C01         84.7830   138.9570    13.6410 c3         1 H80       0.145900
     10 C04         84.1180   141.3740    15.1270 ca         1 H80      -0.215000
     11 C05         84.9740   141.3940    14.0110 ca         1 H80       0.155100
     12 C06         85.5260   142.6060    13.5890 ca         1 H80      -0.107000
     13 C07         85.2390   143.8090    14.2620 ca         1 H80      -0.028300
     14 C08         83.8080   142.5700    15.8190 ca         1 H80       0.010000
     15 C09         84.3750   143.8060    15.3910 ca         1 H80       0.260000
     16 C11         81.8500   143.8500    18.7560 ca         1 H80      -0.223000
     17 C12         82.6810   143.7840    17.6080 ca         1 H80       0.006000
     18 C14         83.0380   146.1870    17.7700 ca         1 H80      -0.052000
     19 C16         81.6100   145.0830    19.3970 ca         1 H80       0.159100
     20 C18         82.9320   142.5600    16.9370 ca         1 H80      -0.098000
     21 C25         80.5140   140.1030    14.6110 c5         1 H80      -0.110400
     22 N10         84.1050   144.9640    16.0400 nb         1 H80      -0.624000
     23 N23         78.8880   141.5160    13.4730 n7         1 H80      -0.821400
     24 O02         80.8060   145.1980    20.5130 os         1 H80      -0.336100
     25 O03         85.3040   140.2550    13.3030 os         1 H80      -0.336100
     26 O27         85.3400   145.4570    12.4650 oh         1 H80      -0.648000
     27 S19         82.1280   141.0330    17.4670 ss         1 H80      -0.231000
     28 H1          82.0230   147.1990    19.3890 ha         1 H80       0.133000
     29 H2          79.5530   144.3870    21.9750 h1         1 H80       0.044367
     30 H3          79.4560   143.5990    20.3870 h1         1 H80       0.044367
     31 H4          80.8670   143.3190    21.4420 h1         1 H80       0.044367
     32 H5          79.9850   142.1940    17.4160 h1         1 H80       0.070700
     33 H6          79.7720   140.4360    17.3100 h1         1 H80       0.070700
     34 H7          80.8480   142.2240    15.0800 hc         1 H80       0.065700
     35 H8          78.3760   142.6260    15.2370 h1         1 H80       0.055200
     36 H9          78.0710   140.8740    15.3410 h1         1 H80       0.055200
     37 H10         79.1650   139.4440    13.0100 h1         1 H80       0.054200
     38 H11         80.4610   140.5060    12.4340 h1         1 H80       0.054200
     39 H12         86.9710   144.9140    13.6400 h1         1 H80       0.031700
     40 H13         85.7750   145.9180    14.4510 h1         1 H80       0.031700
     41 H14         85.1750   138.2000    12.9510 h1         1 H80       0.044367
     42 H15         85.0750   138.6710    14.6590 h1         1 H80       0.044367
     43 H16         83.6880   138.9450    13.5710 h1         1 H80       0.044367
     44 H17         83.7020   140.4310    15.4580 ha         1 H80       0.141000
     45 H18         86.1860   142.6140    12.7260 ha         1 H80       0.133000
     46 H19         81.4030   142.9480    19.1540 ha         1 H80       0.137000
     47 H20         83.4980   147.0980    17.3960 ha         1 H80       0.134000
     48 H21         80.1250   139.2140    15.1230 hc         1 H80       0.050200
     49 H22         81.5870   139.9440    14.4620 hc         1 H80       0.050200
     50 H23         79.3990   142.3440    13.1420 hn         1 H80       0.400000
     51 H25         85.7880   146.2880    12.1920 ho         1 H80       0.443000
@<TRIPOS>BOND
     1     1    17 ar  
     2     1    18 ar  
     3     1    22 ar  
     4     2    18 ar  
     5     2    19 ar  
     6     2    28 1   
     7     3    24 1   
     8     3    29 1   
     9     3    30 1   
    10     3    31 1   
    11     4     5 1   
    12     4    27 1   
    13     4    32 1   
    14     4    33 1   
    15     5     6 1   
    16     5    21 1   
    17     5    34 1   
    18     6    23 1   
    19     6    35 1   
    20     6    36 1   
    21     7    21 1   
    22     7    23 1   
    23     7    37 1   
    24     7    38 1   
    25     8    13 1   
    26     8    26 1   
    27     8    39 1   
    28     8    40 1   
    29     9    25 1   
    30     9    41 1   
    31     9    42 1   
    32     9    43 1   
    33    10    11 ar  
    34    10    14 ar  
    35    10    44 1   
    36    11    12 ar  
    37    11    25 1   
    38    12    13 ar  
    39    12    45 1   
    40    13    15 ar  
    41    14    15 ar  
    42    14    20 ar  
    43    15    22 ar  
    44    16    17 ar  
    45    16    19 ar  
    46    16    46 1   
    47    17    20 ar  
    48    18    47 1   
    49    19    24 1   
    50    20    27 1   
    51    21    48 1   
    52    21    49 1   
    53    23    50 1   
    54    26    51 1   
@<TRIPOS>SUBSTRUCTURE
     1 H80         1 TEMP              0 ****  ****    0 ROOT
