@<TRIPOS>MOLECULE
H80
   51    54     1     0     0
SMALL
abcg2


@<TRIPOS>ATOM
      1 C13         83.4090   144.9260    17.1940 ca         1 H80       0.243000
      2 C15         82.3960   146.2230    18.9700 ca         1 H80      -0.123000
      3 C17         80.1210   144.1860    20.9500 c3         1 H80       0.144900
      4 C20         80.3920   141.4260    16.6680 c3         1 H80       0.073600
      5 C21         80.3670   141.3950    15.1510 c5         1 H80      -0.099700
      6 C22         78.9710   141.7840    14.6020 c5         1 H80       0.133800
      7 C24         79.3280   139.6780    13.7790 c5         1 H80       0.130800
      8 C26         85.9730   145.1180    13.9510 c3         1 H80       0.215900
      9 C01         84.6870   139.1620    13.4860 c3         1 H80       0.145900
     10 C04         84.0590   141.3980    15.0610 ca         1 H80      -0.215000
     11 C05         84.9330   141.4560    14.0140 ca         1 H80       0.155100
     12 C06         85.5660   142.6860    13.6670 ca         1 H80      -0.107000
     13 C07         85.3350   143.8250    14.3670 ca         1 H80      -0.028300
     14 C08         83.7840   142.5650    15.8260 ca         1 H80       0.010000
     15 C09         84.4310   143.7960    15.4830 ca         1 H80       0.260000
     16 C11         81.8300   143.8730    18.7540 ca         1 H80      -0.223000
     17 C12         82.6930   143.7690    17.6290 ca         1 H80       0.006000
     18 C14         83.2280   146.1490    17.9040 ca         1 H80      -0.052000
     19 C16         81.6840   145.0660    19.4070 ca         1 H80       0.159100
     20 C18         82.8920   142.5810    16.9090 ca         1 H80      -0.098000
     21 C25         80.6230   140.0020    14.5400 c5         1 H80      -0.110400
     22 N10         84.2390   144.9190    16.1590 nb         1 H80      -0.624000
     23 N23         78.7190   140.9570    13.4310 n7         1 H80      -0.821400
     24 O02         80.9000   145.2670    20.4750 os         1 H80      -0.336100
     25 O03         85.2710   140.4230    13.2290 os         1 H80      -0.336100
     26 O27         84.9990   145.9000    13.2930 oh         1 H80      -0.648000
     27 S19         82.0390   141.1030    17.3940 ss         1 H80      -0.231000
     28 H1          82.2610   147.1540    19.5050 ha         1 H80       0.133000
     29 H2          79.5440   144.5660    21.7890 h1         1 H80       0.044367
     30 H3          79.4340   143.8160    20.1840 h1         1 H80       0.044367
     31 H4          80.7440   143.3570    21.2950 h1         1 H80       0.044367
     32 H5          80.0280   142.3810    17.0520 h1         1 H80       0.070700
     33 H6          79.7500   140.6440    17.0820 h1         1 H80       0.070700
     34 H7          81.1040   142.1090    14.7740 hc         1 H80       0.065700
     35 H8          78.8960   142.8440    14.3570 h1         1 H80       0.055200
     36 H9          78.2040   141.5710    15.3550 h1         1 H80       0.055200
     37 H10         78.6390   139.1290    14.4270 h1         1 H80       0.054200
     38 H11         79.4900   139.0690    12.8890 h1         1 H80       0.054200
     39 H12         86.8200   144.8950    13.2910 h1         1 H80       0.031700
     40 H13         86.3750   145.6290    14.8310 h1         1 H80       0.031700
     41 H14         85.1030   138.4730    12.7560 h1         1 H80       0.044367
     42 H15         84.9240   138.8010    14.4910 h1         1 H80       0.044367
     43 H16         83.6000   139.1880    13.3700 h1         1 H80       0.044367
     44 H17         83.5610   140.4790    15.3340 ha         1 H80       0.141000
     45 H18         86.2420   142.6940    12.8200 ha         1 H80       0.133000
     46 H19         81.3120   142.9840    19.0850 ha         1 H80       0.137000
     47 H20         83.7760   147.0200    17.5660 ha         1 H80       0.134000
     48 H21         80.8590   139.2520    15.2970 hc         1 H80       0.050200
     49 H22         81.4710   140.0370    13.8530 hc         1 H80       0.050200
     50 H23         79.2290   141.3480    12.6470 hn         1 H80       0.400000
     51 H25         85.3510   146.7910    13.1990 ho         1 H80       0.443000
@<TRIPOS>BOND
     1     1    17 ar  
     2     1    18 ar  
     3     1    22 ar  
     4     2    18 ar  
     5     2    19 ar  
     6     2    28 1   
     7     3    24 1   
     8     3    29 1   
     9     3    30 1   
    10     3    31 1   
    11     4     5 1   
    12     4    27 1   
    13     4    32 1   
    14     4    33 1   
    15     5     6 1   
    16     5    21 1   
    17     5    34 1   
    18     6    23 1   
    19     6    35 1   
    20     6    36 1   
    21     7    21 1   
    22     7    23 1   
    23     7    37 1   
    24     7    38 1   
    25     8    13 1   
    26     8    26 1   
    27     8    39 1   
    28     8    40 1   
    29     9    25 1   
    30     9    41 1   
    31     9    42 1   
    32     9    43 1   
    33    10    11 ar  
    34    10    14 ar  
    35    10    44 1   
    36    11    12 ar  
    37    11    25 1   
    38    12    13 ar  
    39    12    45 1   
    40    13    15 ar  
    41    14    15 ar  
    42    14    20 ar  
    43    15    22 ar  
    44    16    17 ar  
    45    16    19 ar  
    46    16    46 1   
    47    17    20 ar  
    48    18    47 1   
    49    19    24 1   
    50    20    27 1   
    51    21    48 1   
    52    21    49 1   
    53    23    50 1   
    54    26    51 1   
@<TRIPOS>SUBSTRUCTURE
     1 H80         1 TEMP              0 ****  ****    0 ROOT
