@<TRIPOS>MOLECULE
H82
   69    73     1     0     0
SMALL
abcg2


@<TRIPOS>ATOM
      1 C5          -3.7210    -1.2930     0.4490 ca         1 H82       0.459300
      2 C6          -3.3850    -2.5970     0.0500 ca         1 H82      -0.372300
      3 C7          -2.0440    -2.7930    -0.2090 ca         1 H82       0.218900
      4 C15         -5.4040     0.2470     0.9700 ca         1 H82       0.174100
      5 C17         -6.3120     1.8910     2.4520 ca         1 H82      -0.068000
      6 C20         -5.4720     1.1690    -0.0700 ca         1 H82      -0.197600
      7 C21         -5.4250     2.3270    -2.1800 c5         1 H82      -0.184400
      8 C24          7.6710    -0.1670    -1.2400 c6         1 H82      -0.126400
      9 C26          7.8090    -0.5630     1.2160 c6         1 H82      -0.126400
     10 C1           9.3190    -0.4960     1.1260 c6         1 H82       0.100600
     11 C3          -1.5670    -0.6460     0.2820 ca         1 H82       0.441900
     12 N4          -2.8380    -0.3440     0.5730 nb         1 H82      -0.317000
     13 N8          -1.1300    -1.8400    -0.1010 nb         1 H82      -0.269000
     14 C9          -4.4050    -3.6680    -0.0900 c3         1 H82       0.392300
     15 F10         -5.3430    -3.3620    -0.9960 f          1 H82      -0.108000
     16 F11         -3.8530    -4.8240    -0.4760 f          1 H82      -0.108000
     17 F12         -5.0510    -3.9100     1.0600 f          1 H82      -0.108000
     18 O13         -4.9960    -1.0460     0.7430 os         1 H82      -0.339400
     19 C14         -5.9450     3.2770    -1.0950 c5         1 H82      -0.035100
     20 C16         -5.8220     0.6020     2.2330 ca         1 H82      -0.120000
     21 C18         -6.3820     2.8220     1.4280 ca         1 H82      -0.111000
     22 C19         -5.9580     2.4500     0.1600 ca         1 H82      -0.036300
     23 N22          9.8010    -0.9190    -0.2220 nx         1 H82      -0.663000
     24 C23          9.1820    -0.0950    -1.3040 c6         1 H82       0.100600
     25 C25          7.1550     0.2790     0.1270 c6         1 H82       0.117700
     26 N27          5.7180     0.1780     0.2250 ns         1 H82      -0.513900
     27 C29          2.8910    -0.4070    -0.0390 ca         1 H82      -0.093000
     28 C30          3.4260     0.8720    -0.0460 ca         1 H82      -0.161600
     29 C31          2.5670     1.9670     0.0590 ca         1 H82      -0.117000
     30 C32          1.2060     1.7820     0.2030 ca         1 H82       0.088100
     31 C33          0.6610     0.4770     0.2240 ca         1 H82       0.330000
     32 C34          1.5230    -0.6050     0.0920 ca         1 H82      -0.119000
     33 C36          0.7740     4.1160     0.3620 c3         1 H82       0.150900
     34 C37          4.8850     1.1500    -0.1910 c          1 H82       0.626700
     35 O38          5.2880     2.2150    -0.6410 o          1 H82      -0.595100
     36 C39         -5.1080     1.0150    -1.4870 c          1 H82       0.594700
     37 O40         -4.6460     0.0260    -2.0100 o          1 H82      -0.509100
     38 H44         -1.6760    -3.7620    -0.5230 h4         1 H82       0.042100
     39 H48         -6.6380     2.1630     3.4470 ha         1 H82       0.124000
     40 H50         -6.1640     2.1470    -2.9630 hc         1 H82       0.079700
     41 H51         -4.5270     2.7010    -2.6750 hc         1 H82       0.079700
     42 H56          7.2720     0.4720    -2.0280 hc         1 H82       0.090950
     43 H55          7.3340    -1.1870    -1.4500 hc         1 H82       0.090950
     44 H58          7.4820    -1.6050     1.1370 hc         1 H82       0.090950
     45 H59          7.5170    -0.2080     2.2050 hc         1 H82       0.090950
     46 H42          9.6860     0.5180     1.2840 hx         1 H82       0.099950
     47 H41          9.7870    -1.1500     1.8580 hx         1 H82       0.099950
     48 H46         -5.2980     4.1470    -0.9720 hc         1 H82       0.065700
     49 H45         -6.9430     3.6550    -1.3220 hc         1 H82       0.065700
     50 H47         -5.7740    -0.1130     3.0450 ha         1 H82       0.137000
     51 H49         -6.7640     3.8170     1.6190 ha         1 H82       0.126000
     52 H52          9.5070    -1.8880    -0.3670 hn         1 H82       0.499000
     53 H53          9.5630    -0.4670    -2.2530 hx         1 H82       0.099950
     54 H54          9.5410     0.9260    -1.1630 hx         1 H82       0.099950
     55 H57          7.4350     1.3250     0.2830 h1         1 H82       0.091700
     56 H60          5.3370    -0.6570     0.6400 hn         1 H82       0.327500
     57 H64          3.5170    -1.2810    -0.1600 ha         1 H82       0.104000
     58 H65          2.9830     2.9650     0.0320 ha         1 H82       0.142000
     59 H66          1.1290    -1.6070     0.0850 ha         1 H82       0.162000
     60 H67         -0.1030     4.7410     0.5000 h1         1 H82       0.049033
     61 H68          1.4660     4.2840     1.1910 h1         1 H82       0.049033
     62 H69          1.2660     4.3930    -0.5730 h1         1 H82       0.049033
     63 N2          -0.7140     0.3970     0.4010 nu         1 H82      -0.911900
     64 O35          0.3110     2.7790     0.3320 os         1 H82      -0.355100
     65 C28         11.2810    -0.8960    -0.2970 c3         1 H82       0.073900
     66 H62         11.6810    -1.5580     0.4650 hx         1 H82       0.100033
     67 H63         11.5880    -1.2350    -1.2810 hx         1 H82       0.100033
     68 H61         11.6270     0.1200    -0.1280 hx         1 H82       0.100033
     69 H43         -1.1720     1.2650     0.6400 hn         1 H82       0.537000
@<TRIPOS>BOND
     1     1     2 ar  
     2     1    12 ar  
     3     1    18 1   
     4     2     3 ar  
     5     2    14 1   
     6     3    13 ar  
     7     3    38 1   
     8     4     6 ar  
     9     4    18 1   
    10     4    20 ar  
    11     5    20 ar  
    12     5    21 ar  
    13     5    39 1   
    14     6    22 ar  
    15     6    36 1   
    16     7    19 1   
    17     7    36 1   
    18     7    40 1   
    19     7    41 1   
    20     8    24 1   
    21     8    25 1   
    22     8    42 1   
    23     8    43 1   
    24     9    10 1   
    25     9    25 1   
    26     9    44 1   
    27     9    45 1   
    28    10    23 1   
    29    10    46 1   
    30    10    47 1   
    31    11    12 ar  
    32    11    13 ar  
    33    11    63 1   
    34    14    15 1   
    35    14    16 1   
    36    14    17 1   
    37    19    22 1   
    38    19    48 1   
    39    19    49 1   
    40    20    50 1   
    41    21    22 ar  
    42    21    51 1   
    43    23    24 1   
    44    23    52 1   
    45    23    65 1   
    46    24    53 1   
    47    24    54 1   
    48    25    26 1   
    49    25    55 1   
    50    26    34 1   
    51    26    56 1   
    52    27    28 ar  
    53    27    32 ar  
    54    27    57 1   
    55    28    29 ar  
    56    28    34 1   
    57    29    30 ar  
    58    29    58 1   
    59    30    31 ar  
    60    30    64 1   
    61    31    32 ar  
    62    31    63 1   
    63    32    59 1   
    64    33    60 1   
    65    33    61 1   
    66    33    62 1   
    67    33    64 1   
    68    34    35 2   
    69    36    37 2   
    70    63    69 1   
    71    65    66 1   
    72    65    67 1   
    73    65    68 1   
@<TRIPOS>SUBSTRUCTURE
     1 H82         1 TEMP              0 ****  ****    0 ROOT
