@<TRIPOS>MOLECULE
H82
   69    73     1     0     0
SMALL
No Charge or Current Charge


@<TRIPOS>ATOM
      1 C5          -3.7970    -1.3420     0.6030 ca         1 H82       0.459300
      2 C6          -3.4140    -2.6340     0.2000 ca         1 H82      -0.372300
      3 C7          -2.0440    -2.8480    -0.0350 ca         1 H82       0.218900
      4 C15         -5.6360     0.1910     0.9190 ca         1 H82       0.174100
      5 C17         -6.8270     1.9010     2.1980 ca         1 H82      -0.068000
      6 C20         -5.5270     1.1050    -0.1430 ca         1 H82      -0.197600
      7 C21         -4.7120     2.3380    -1.9780 c5         1 H82      -0.184400
      8 C24          7.6950     0.2270    -1.2220 c6         1 H82      -0.126400
      9 C26          7.8730    -0.9400     1.0100 c6         1 H82      -0.126400
     10 C1           9.4110    -0.9370     0.8940 c6         1 H82       0.100600
     11 C3          -1.6100    -0.6810     0.5320 ca         1 H82       0.441900
     12 N4          -2.8840    -0.3660     0.7730 nb         1 H82      -0.317000
     13 N8          -1.1400    -1.8680     0.1250 nb         1 H82      -0.269000
     14 C9          -4.4390    -3.7460     0.0150 c3         1 H82       0.392300
     15 F10         -5.3590    -3.4280    -0.9230 f          1 H82      -0.108000
     16 F11         -3.8770    -4.9120    -0.3750 f          1 H82      -0.108000
     17 F12         -5.1080    -4.0040     1.1610 f          1 H82      -0.108000
     18 O13         -5.1290    -1.0840     0.8400 os         1 H82      -0.339400
     19 C14         -5.8500     3.1940    -1.3110 c5         1 H82      -0.035100
     20 C16         -6.2980     0.5960     2.0930 ca         1 H82      -0.120000
     21 C18         -6.7030     2.8040     1.1230 ca         1 H82      -0.111000
     22 C19         -6.0480     2.3860    -0.0460 ca         1 H82      -0.036300
     23 N22          9.8400    -0.9500    -0.5790 nx         1 H82      -0.663000
     24 C23          9.2320     0.2320    -1.3470 c6         1 H82       0.100600
     25 C25          7.2560     0.2630     0.2610 c6         1 H82       0.117700
     26 N27          5.7930     0.2220     0.3630 ns         1 H82      -0.513900
     27 C29          2.9570    -0.2710     0.6120 ca         1 H82      -0.093000
     28 C30          3.4620     1.0250     0.3530 ca         1 H82      -0.161600
     29 C31          2.5420     2.0910     0.2190 ca         1 H82      -0.117000
     30 C32          1.1490     1.8710     0.3310 ca         1 H82       0.088100
     31 C33          0.6570     0.5630     0.5690 ca         1 H82       0.330000
     32 C34          1.5740    -0.4940     0.7220 ca         1 H82      -0.119000
     33 C36          0.6280     4.2710    -0.0390 c3         1 H82       0.150900
     34 C37          4.9490     1.3020     0.2260 c          1 H82       0.626700
     35 O38          5.3880     2.4240     0.0140 o          1 H82      -0.595100
     36 C39         -4.9260     0.8900    -1.4810 c          1 H82       0.594700
     37 O40         -4.9730    -0.1540    -2.1170 o          1 H82      -0.509100
     38 H44         -1.6540    -3.8120    -0.3590 h4         1 H82       0.042100
     39 H48         -7.3350     2.2090     3.1090 ha         1 H82       0.124000
     40 H50         -4.6710     2.3920    -3.0710 hc         1 H82       0.079700
     41 H51         -3.7630     2.6830    -1.5510 hc         1 H82       0.079700
     42 H56          7.2870     1.0960    -1.7550 hc         1 H82       0.090950
     43 H55          7.2860    -0.6630    -1.7180 hc         1 H82       0.090950
     44 H58          7.4770    -1.8840     0.6100 hc         1 H82       0.090950
     45 H59          7.5890    -0.9050     2.0710 hc         1 H82       0.090950
     46 H42          9.8380    -0.0410     1.3580 hx         1 H82       0.099950
     47 H41          9.8480    -1.8130     1.3880 hx         1 H82       0.099950
     48 H46         -5.5430     4.2300    -1.1230 hc         1 H82       0.065700
     49 H45         -6.7600     3.2150    -1.9220 hc         1 H82       0.065700
     50 H47         -6.3970    -0.0990     2.9220 ha         1 H82       0.137000
     51 H49         -7.1170     3.8080     1.1960 ha         1 H82       0.126000
     52 H52          9.4580    -1.8270    -1.0060 hn         1 H82       0.499000
     53 H53          9.5450     0.1600    -2.3940 hx         1 H82       0.099950
     54 H54          9.6570     1.1520    -0.9310 hx         1 H82       0.099950
     55 H57          7.6180     1.1950     0.7230 h1         1 H82       0.091700
     56 H60          5.3520    -0.6700     0.5370 hn         1 H82       0.327500
     57 H64          3.6220    -1.1220     0.7370 ha         1 H82       0.104000
     58 H65          2.9250     3.0900     0.0300 ha         1 H82       0.142000
     59 H66          1.2260    -1.4950     0.9460 ha         1 H82       0.162000
     60 H67         -0.2560     4.9190    -0.0960 h1         1 H82       0.049033
     61 H68          1.2700     4.6460     0.7680 h1         1 H82       0.049033
     62 H69          1.1700     4.3530    -0.9900 h1         1 H82       0.049033
     63 N2          -0.7330     0.3780     0.6820 nu         1 H82      -0.911900
     64 O35          0.2320     2.9100     0.2110 os         1 H82      -0.355100
     65 C28         11.3640    -1.0190    -0.7370 c3         1 H82       0.073900
     66 H62         11.7500    -1.9010    -0.2200 hx         1 H82       0.100033
     67 H63         11.6240    -1.0780    -1.7960 hx         1 H82       0.100033
     68 H61         11.8160    -0.1230    -0.3050 hx         1 H82       0.100033
     69 H43         -1.2230     1.2680     0.7700 hn         1 H82       0.537000
@<TRIPOS>BOND
     1     1     2 ar  
     2     1    12 ar  
     3     1    18 1   
     4     2     3 ar  
     5     2    14 1   
     6     3    13 ar  
     7     3    38 1   
     8     4     6 ar  
     9     4    18 1   
    10     4    20 ar  
    11     5    20 ar  
    12     5    21 ar  
    13     5    39 1   
    14     6    22 ar  
    15     6    36 1   
    16     7    19 1   
    17     7    36 1   
    18     7    40 1   
    19     7    41 1   
    20     8    24 1   
    21     8    25 1   
    22     8    42 1   
    23     8    43 1   
    24     9    10 1   
    25     9    25 1   
    26     9    44 1   
    27     9    45 1   
    28    10    23 1   
    29    10    46 1   
    30    10    47 1   
    31    11    12 ar  
    32    11    13 ar  
    33    11    63 1   
    34    14    15 1   
    35    14    16 1   
    36    14    17 1   
    37    19    22 1   
    38    19    48 1   
    39    19    49 1   
    40    20    50 1   
    41    21    22 ar  
    42    21    51 1   
    43    23    24 1   
    44    23    52 1   
    45    23    65 1   
    46    24    53 1   
    47    24    54 1   
    48    25    26 1   
    49    25    55 1   
    50    26    34 1   
    51    26    56 1   
    52    27    28 ar  
    53    27    32 ar  
    54    27    57 1   
    55    28    29 ar  
    56    28    34 1   
    57    29    30 ar  
    58    29    58 1   
    59    30    31 ar  
    60    30    64 1   
    61    31    32 ar  
    62    31    63 1   
    63    32    59 1   
    64    33    60 1   
    65    33    61 1   
    66    33    62 1   
    67    33    64 1   
    68    34    35 2   
    69    36    37 2   
    70    63    69 1   
    71    65    66 1   
    72    65    67 1   
    73    65    68 1   
@<TRIPOS>SUBSTRUCTURE
     1 H82         1 TEMP              0 ****  ****    0 ROOT
