@<TRIPOS>MOLECULE
H83
   41    42     1     0     0
SMALL
bcc


@<TRIPOS>ATOM
      1 C8           2.2450     0.3640     0.3340 cp         1 H83      -0.025000
      2 CL           1.8960    -1.6810    -1.4240 cl         1 H83      -0.109400
      3 C9           1.3600    -0.5760    -0.1960 ca         1 H83       0.034400
      4 C11          3.6640     0.4640    -0.0710 cp         1 H83      -0.041000
      5 C16          4.5490    -0.5940     0.1350 ca         1 H83      -0.107500
      6 C15          5.8860    -0.4690    -0.2100 ca         1 H83      -0.131500
      7 C14          6.3570     0.7120    -0.7700 ca         1 H83      -0.122000
      8 C13          5.4840     1.7700    -0.9780 ca         1 H83      -0.131500
      9 C12          4.1460     1.6470    -0.6280 ca         1 H83      -0.107500
     10 C7           1.7330     1.2470     1.2820 ca         1 H83      -0.115000
     11 C6           0.4100     1.1860     1.6940 ca         1 H83      -0.126000
     12 C10          0.0360    -0.6420     0.2010 ca         1 H83      -0.099000
     13 C5          -0.4520     0.2350     1.1650 ca         1 H83      -0.079300
     14 C4          -1.8890     0.1430     1.6020 c3         1 H83       0.207100
     15 N1          -2.7850     0.2470     0.4680 n7         1 H83      -0.809200
     16 C3          -4.1760     0.0310     0.8180 c3         1 H83       0.160800
     17 C2          -5.0820     0.2250    -0.3880 c3         1 H83      -0.081400
     18 C1          -6.5430    -0.0680    -0.0800 c3         1 H83      -0.077400
     19 C           -7.4490     0.1640    -1.2790 c3         1 H83       0.150800
     20 N           -8.8360    -0.1390    -0.9550 n8         1 H83      -0.886800
     21 H1           4.1940    -1.5140     0.5810 ha         1 H83       0.135000
     22 H2           6.5650    -1.2940    -0.0350 ha         1 H83       0.131000
     23 H3           7.4010     0.8070    -1.0410 ha         1 H83       0.130000
     24 H4           5.8420     2.6930    -1.4150 ha         1 H83       0.131000
     25 H5           3.4660     2.4740    -0.7940 ha         1 H83       0.135000
     26 H6           2.3930     1.9900     1.7120 ha         1 H83       0.138000
     27 H7           0.0490     1.8870     2.4370 ha         1 H83       0.133000
     28 H8          -0.6250    -1.3750    -0.2430 ha         1 H83       0.160000
     29 H9          -2.0580    -0.8310     2.0730 h1         1 H83       0.038200
     30 H10         -2.0810     0.8960     2.3810 h1         1 H83       0.038200
     31 H11         -2.6860     1.1690     0.0570 hn         1 H83       0.355800
     32 H13         -4.2780    -0.9950     1.1880 h1         1 H83       0.029700
     33 H14         -4.5160     0.6860     1.6360 h1         1 H83       0.029700
     34 H15         -4.9840     1.2550    -0.7490 hc         1 H83       0.045200
     35 H16         -4.7370    -0.4220    -1.2010 hc         1 H83       0.045200
     36 H17         -6.6430    -1.1080     0.2520 hc         1 H83       0.046200
     37 H18         -6.8850     0.5560     0.7520 hc         1 H83       0.046200
     38 H19         -7.3880     1.2150    -1.5730 h1         1 H83       0.026700
     39 H20         -7.0620    -0.4140    -2.1320 h1         1 H83       0.026700
     40 H21         -9.4230     0.0750    -1.7500 hn         1 H83       0.337300
     41 H22         -8.9330    -1.1360    -0.8060 hn         1 H83       0.337300
@<TRIPOS>BOND
     1     1     3 ar  
     2     1     4 1   
     3     1    10 ar  
     4     2     3 1   
     5     3    12 ar  
     6     4     5 ar  
     7     4     9 ar  
     8     5     6 ar  
     9     5    21 1   
    10     6     7 ar  
    11     6    22 1   
    12     7     8 ar  
    13     7    23 1   
    14     8     9 ar  
    15     8    24 1   
    16     9    25 1   
    17    10    11 ar  
    18    10    26 1   
    19    11    13 ar  
    20    11    27 1   
    21    12    13 ar  
    22    12    28 1   
    23    13    14 1   
    24    14    15 1   
    25    14    29 1   
    26    14    30 1   
    27    15    16 1   
    28    15    31 1   
    29    16    17 1   
    30    16    32 1   
    31    16    33 1   
    32    17    18 1   
    33    17    34 1   
    34    17    35 1   
    35    18    19 1   
    36    18    36 1   
    37    18    37 1   
    38    19    20 1   
    39    19    38 1   
    40    19    39 1   
    41    20    40 1   
    42    20    41 1   
@<TRIPOS>SUBSTRUCTURE
     1 H83         1 TEMP              0 ****  ****    0 ROOT
