@<TRIPOS>MOLECULE
H83
   41    42     1     0     0
SMALL
No Charge or Current Charge


@<TRIPOS>ATOM
      1 C8           2.2690     0.2890     0.3520 cp         1 H83      -0.025000
      2 Cl           2.2130    -2.1440    -1.0160 cl         1 H83      -0.201000
      3 C9           1.5280    -0.8740     0.0010 ca         1 H83       0.126000
      4 C11          3.6870     0.4990    -0.0720 cp         1 H83      -0.041000
      5 C16          4.6910    -0.4640     0.2000 ca         1 H83      -0.089500
      6 C15          6.0250    -0.2480    -0.1870 ca         1 H83      -0.113500
      7 C14          6.3810     0.9390    -0.8490 ca         1 H83      -0.104000
      8 C13          5.4040     1.9110    -1.1170 ca         1 H83      -0.113500
      9 C12          4.0710     1.6940    -0.7280 ca         1 H83      -0.089500
     10 C7           1.6190     1.2820     1.1240 ca         1 H83      -0.097000
     11 C6           0.2890     1.1220     1.5470 ca         1 H83      -0.108000
     12 C10          0.1970    -1.0290     0.4260 ca         1 H83      -0.081000
     13 C5          -0.4300    -0.0370     1.2040 ca         1 H83      -0.079300
     14 C4          -1.8710    -0.2190     1.6580 c3         1 H83       0.207100
     15 N1          -2.7980     0.0420     0.5430 n7         1 H83      -0.864400
     16 C3          -4.2280    -0.0790     0.8770 c3         1 H83       0.160800
     17 C2          -5.0900     0.2060    -0.3690 c3         1 H83      -0.081400
     18 C1          -6.6050     0.0900    -0.0920 c3         1 H83      -0.077400
     19 C           -7.4660     0.3750    -1.3390 c3         1 H83       0.150800
     20 N           -8.9060     0.2600    -1.0420 n8         1 H83      -0.997200
     21 H1           4.4320    -1.3800     0.7250 ha         1 H83       0.117000
     22 H2           6.7810    -0.9990     0.0280 ha         1 H83       0.113000
     23 H3           7.4140     1.1060    -1.1490 ha         1 H83       0.112000
     24 H4           5.6790     2.8330    -1.6250 ha         1 H83       0.113000
     25 H5           3.3230     2.4540    -0.9430 ha         1 H83       0.117000
     26 H6           2.1600     2.1820     1.4060 ha         1 H83       0.120000
     27 H7          -0.1820     1.9000     2.1440 ha         1 H83       0.115000
     28 H8          -0.3550    -1.9200     0.1410 ha         1 H83       0.142000
     29 H9          -2.0010    -1.2440     2.0330 h1         1 H83       0.038200
     30 H10         -2.0760     0.4630     2.4950 h1         1 H83       0.038200
     31 H11         -2.6260     0.9980     0.2130 hn         1 H83       0.411000
     32 H13         -4.4500    -1.0910     1.2430 h1         1 H83       0.029700
     33 H14         -4.4970     0.6330     1.6700 h1         1 H83       0.029700
     34 H15         -4.8680     1.2140    -0.7400 hc         1 H83       0.045200
     35 H16         -4.8150    -0.4980    -1.1650 hc         1 H83       0.045200
     36 H17         -6.8260    -0.9180     0.2800 hc         1 H83       0.046200
     37 H18         -6.8790     0.7940     0.7040 hc         1 H83       0.046200
     38 H19         -7.2630     1.3910    -1.7060 h1         1 H83       0.026700
     39 H20         -7.2130    -0.3390    -2.1360 h1         1 H83       0.026700
     40 H21         -9.4380     0.3960    -1.9100 hn         1 H83       0.392500
     41 H22         -9.1160    -0.7110    -0.7810 hn         1 H83       0.392500
@<TRIPOS>BOND
     1     1     3 ar  
     2     1     4 1   
     3     1    10 ar  
     4     2     3 1   
     5     3    12 ar  
     6     4     5 ar  
     7     4     9 ar  
     8     5     6 ar  
     9     5    21 1   
    10     6     7 ar  
    11     6    22 1   
    12     7     8 ar  
    13     7    23 1   
    14     8     9 ar  
    15     8    24 1   
    16     9    25 1   
    17    10    11 ar  
    18    10    26 1   
    19    11    13 ar  
    20    11    27 1   
    21    12    13 ar  
    22    12    28 1   
    23    13    14 1   
    24    14    15 1   
    25    14    29 1   
    26    14    30 1   
    27    15    16 1   
    28    15    31 1   
    29    16    17 1   
    30    16    32 1   
    31    16    33 1   
    32    17    18 1   
    33    17    34 1   
    34    17    35 1   
    35    18    19 1   
    36    18    36 1   
    37    18    37 1   
    38    19    20 1   
    39    19    38 1   
    40    19    39 1   
    41    20    40 1   
    42    20    41 1   
@<TRIPOS>SUBSTRUCTURE
     1 H83         1 TEMP              0 ****  ****    0 ROOT
