@<TRIPOS>MOLECULE
H84
   44    46     1     0     0
SMALL
No Charge or Current Charge


@<TRIPOS>ATOM
      1 N1          -5.8290    -2.8700     0.8630 nb         1 H84      -0.350000
      2 C2          -6.3980    -1.6950     1.2210 ca         1 H84       0.116900
      3 N3          -6.0610    -0.4630     0.7710 nb         1 H84      -0.225000
      4 C4          -5.0530    -0.4150    -0.1240 ca         1 H84       0.073500
      5 C5          -4.4110    -1.5490    -0.5550 ca         1 H84      -0.056600
      6 C6          -4.8330    -2.7920    -0.0320 ca         1 H84       0.425900
      7 N6          -4.2680    -3.9780    -0.3840 nv         1 H84      -1.079900
      8 N7          -3.4080    -1.2750    -1.4750 nc         1 H84      -0.519100
      9 C8          -3.4690     0.0700    -1.5680 cd         1 H84       0.513700
     10 N9          -4.4750     0.6500    -0.7660 na         1 H84      -0.294300
     11 PA           0.3470     1.9750    -1.1160 p5         1 H84       1.475800
     12 PB           1.1640    -0.3400    -0.0930 p5         1 H84       1.519400
     13 PG           1.4350    -2.5940     1.5750 p5         1 H84       1.320500
     14 C1          -4.8780     2.0520    -0.7340 c5         1 H84       0.325300
     15 O1A          1.0940     3.0140    -0.3490 o          1 H84      -0.858500
     16 O2B          2.5020     0.3310     0.0180 o          1 H84      -0.841000
     17 O1G          2.8690    -2.5450     1.1630 o          1 H84      -0.927167
     18 C7          -4.8660     2.7330     0.6700 c5         1 H84      -0.168400
     19 O2A          0.9560     1.6660    -2.4430 o          1 H84      -0.858500
     20 O1B          1.1000    -1.3420    -1.2060 o          1 H84      -0.841000
     21 O2G          1.3840    -3.1010     2.9810 o          1 H84      -0.927167
     22 C3          -4.1840     4.1010     0.4030 c5         1 H84       0.117300
     23 O3          -5.1410     5.0860    -0.0140 oh         1 H84      -0.738000
     24 O3A         -0.0160     0.7020    -0.2740 os         1 H84      -0.743800
     25 C3B          0.6030    -0.9330     1.5900 c3         1 H84      -0.156000
     26 Br1          1.2410     0.2740     3.1250 br         1 H84      -0.393500
     27 Br2         -1.4360    -1.0960     1.8290 br         1 H84      -0.393500
     28 O3G          0.6770    -3.5810     0.7470 o          1 H84      -0.927167
     29 C9          -3.1900     3.6940    -0.7290 c5         1 H84       0.162300
     30 O4          -3.9990     2.8350    -1.5710 os         1 H84      -0.431000
     31 C10         -1.9110     2.9620    -0.2190 c3         1 H84       0.208600
     32 O5          -1.1730     2.4530    -1.3430 os         1 H84      -0.593400
     33 H1          -7.2090    -1.7450     1.9450 h5         1 H84      -0.001900
     34 H2          -4.4170    -4.7700     0.2340 hn         1 H84       0.495500
     35 H3          -3.3660    -3.9350    -0.8540 hn         1 H84       0.495500
     36 H4          -2.8430     0.6810    -2.2100 h5         1 H84       0.167800
     37 H5          -5.8880     2.0800    -1.1600 h2         1 H84       0.055700
     38 H8          -5.8760     2.8310     1.0840 hc         1 H84       0.082700
     39 H9          -4.2940     2.1390     1.3920 hc         1 H84       0.082700
     40 H12         -3.6440     4.4580     1.2930 h1         1 H84       0.068700
     41 H13         -5.7060     5.2910     0.7670 ho         1 H84       0.475000
     42 H14         -2.8700     4.5670    -1.3130 h1         1 H84       0.060700
     43 H15         -1.3130     3.6790     0.3590 h1         1 H84       0.041700
     44 H16         -2.1880     2.1410     0.4550 h1         1 H84       0.041700
@<TRIPOS>BOND
     1     1     2 ar  
     2     1     6 ar  
     3     2     3 ar  
     4     2    33 1   
     5     3     4 ar  
     6     4     5 ar  
     7     4    10 1   
     8     5     6 ar  
     9     5     8 1   
    10     6     7 1   
    11     7    34 1   
    12     7    35 1   
    13     8     9 2   
    14     9    10 1   
    15     9    36 1   
    16    10    14 1   
    17    11    15 1   
    18    11    19 1   
    19    11    24 1   
    20    11    32 1   
    21    12    16 1   
    22    12    20 1   
    23    12    24 1   
    24    12    25 1   
    25    13    17 1   
    26    13    21 1   
    27    13    25 1   
    28    13    28 1   
    29    14    18 1   
    30    14    30 1   
    31    14    37 1   
    32    18    22 1   
    33    18    38 1   
    34    18    39 1   
    35    22    23 1   
    36    22    29 1   
    37    22    40 1   
    38    23    41 1   
    39    25    26 1   
    40    25    27 1   
    41    29    30 1   
    42    29    31 1   
    43    29    42 1   
    44    31    32 1   
    45    31    43 1   
    46    31    44 1   
@<TRIPOS>SUBSTRUCTURE
     1 H84         1 TEMP              0 ****  ****    0 ROOT
