@<TRIPOS>MOLECULE
H84
   44    46     1     0     0
SMALL
abcg2


@<TRIPOS>ATOM
      1 N1          -7.1030    -2.6860    -0.5540 nb         1 H84      -0.350000
      2 C2          -7.5330    -1.4540    -0.2910 ca         1 H84       0.116900
      3 N3          -6.8260    -0.3440    -0.1750 nb         1 H84      -0.225000
      4 C4          -5.5260    -0.5650    -0.3650 ca         1 H84       0.073500
      5 C5          -4.9320    -1.7840    -0.6480 ca         1 H84      -0.056600
      6 C6          -5.7950    -2.8900    -0.7430 ca         1 H84       0.425900
      7 N6          -5.3590    -4.1210    -1.0270 nv         1 H84      -1.079900
      8 N7          -3.5760    -1.6450    -0.7850 nc         1 H84      -0.519100
      9 C8          -3.3550    -0.3790    -0.5840 cd         1 H84       0.513700
     10 N9          -4.4980     0.3320    -0.3230 na         1 H84      -0.294300
     11 PA           0.2690     1.9260    -1.8720 p5         1 H84       1.475800
     12 PB           1.1070    -0.4850    -0.3490 p5         1 H84       1.519400
     13 PG           2.1570    -1.4250     2.5370 p5         1 H84       1.320500
     14 C1          -4.6250     1.7540    -0.0850 c5         1 H84       0.325300
     15 O1A          1.2960     2.8920    -1.3780 o          1 H84      -0.858500
     16 O2B          2.4750    -0.1260    -0.8420 o          1 H84      -0.841000
     17 O1G          3.5580    -1.0500     2.0740 o          1 H84      -0.927167
     18 C7          -4.0820     2.2200     1.2620 c5         1 H84      -0.168400
     19 O2A          0.3100     1.4130    -3.2780 o          1 H84      -0.858500
     20 O1B          0.4860    -1.8010    -0.7000 o          1 H84      -0.841000
     21 O2G          1.8350    -1.0490     3.9770 o          1 H84      -0.927167
     22 C3          -3.6300     3.6400     0.9430 c5         1 H84       0.117300
     23 O3          -4.7080     4.5440     0.8830 oh         1 H84      -0.738000
     24 O3A          0.0430     0.6850    -0.8320 os         1 H84      -0.743800
     25 C3B          1.0360    -0.2660     1.4960 c3         1 H84      -0.156000
     26 BR1          1.5010     1.5840     1.9270 br         1 H84      -0.393500
     27 BR2         -0.8210    -0.5320     2.0780 br         1 H84      -0.393500
     28 O3G          1.6930    -2.8140     2.1190 o          1 H84      -0.927167
     29 C9          -3.0830     3.4570    -0.4690 c5         1 H84       0.162300
     30 O4          -3.9010     2.4510    -1.0630 os         1 H84      -0.431000
     31 C10         -1.6250     3.0370    -0.4260 c3         1 H84       0.208600
     32 O5          -1.2300     2.5980    -1.7020 os         1 H84      -0.593400
     33 H1          -8.6050    -1.3550    -0.1510 h5         1 H84      -0.001900
     34 H2          -5.9940    -4.9000    -0.9940 hn         1 H84       0.495500
     35 H3          -4.3750    -4.3170    -1.0830 hn         1 H84       0.495500
     36 H4          -2.3810     0.0880    -0.6250 h5         1 H84       0.167800
     37 H5          -5.6930     1.9730    -0.1710 h2         1 H84       0.055700
     38 H8          -4.8310     2.1660     2.0530 hc         1 H84       0.082700
     39 H9          -3.2310     1.6090     1.5740 hc         1 H84       0.082700
     40 H12         -2.8520     3.9850     1.6350 h1         1 H84       0.068700
     41 H13         -5.1300     4.5710     1.7480 ho         1 H84       0.475000
     42 H14         -3.1910     4.3680    -1.0650 h1         1 H84       0.060700
     43 H15         -1.0320     3.8970    -0.0920 h1         1 H84       0.041700
     44 H16         -1.4840     2.2480     0.3220 h1         1 H84       0.041700
@<TRIPOS>BOND
     1     1     2 ar  
     2     1     6 ar  
     3     2     3 ar  
     4     2    33 1   
     5     3     4 ar  
     6     4     5 ar  
     7     4    10 1   
     8     5     6 ar  
     9     5     8 1   
    10     6     7 1   
    11     7    34 1   
    12     7    35 1   
    13     8     9 2   
    14     9    10 1   
    15     9    36 1   
    16    10    14 1   
    17    11    15 1   
    18    11    19 1   
    19    11    24 1   
    20    11    32 1   
    21    12    16 1   
    22    12    20 1   
    23    12    24 1   
    24    12    25 1   
    25    13    17 1   
    26    13    21 1   
    27    13    25 1   
    28    13    28 1   
    29    14    18 1   
    30    14    30 1   
    31    14    37 1   
    32    18    22 1   
    33    18    38 1   
    34    18    39 1   
    35    22    23 1   
    36    22    29 1   
    37    22    40 1   
    38    23    41 1   
    39    25    26 1   
    40    25    27 1   
    41    29    30 1   
    42    29    31 1   
    43    29    42 1   
    44    31    32 1   
    45    31    43 1   
    46    31    44 1   
@<TRIPOS>SUBSTRUCTURE
     1 H84         1 TEMP              0 ****  ****    0 ROOT
