@<TRIPOS>MOLECULE
H86
   65    66     1     0     0
SMALL
No Charge or Current Charge


@<TRIPOS>ATOM
      1 CAA         13.9980    -1.9060     0.4780 c3         1 H86      -0.087100
      2 CAP         12.7900    -0.9500     0.4510 c3         1 H86      -0.075400
      3 CAQ         11.4410    -1.6840     0.2910 c3         1 H86      -0.076400
      4 CAR         10.2310    -0.7240     0.2650 c3         1 H86      -0.074400
      5 CAS          8.8810    -1.4580     0.1050 c3         1 H86      -0.074400
      6 CAT          7.6710    -0.4990     0.0790 c3         1 H86      -0.074400
      7 CAU          6.3210    -1.2330    -0.0800 c3         1 H86      -0.074400
      8 CAV          5.1110    -0.2740    -0.1060 c3         1 H86      -0.074400
      9 CAW          3.7610    -1.0070    -0.2660 c3         1 H86      -0.081400
     10 CAX          2.5570    -0.0470    -0.2920 c3         1 H86       0.173600
     11 OAZ          1.3670    -0.8400    -0.4440 os         1 H86      -0.351100
     12 CBC          0.1110    -0.2750    -0.5070 ca         1 H86       0.055100
     13 CAM         -0.1110     1.1090    -0.4220 ca         1 H86      -0.179000
     14 CAN         -0.9890    -1.1200    -0.6560 ca         1 H86      -0.137000
     15 NBG         -2.2860    -0.6150    -0.7560 na         1 H86       0.113300
     16 CAY         -3.3800    -1.5260    -1.1580 c3         1 H86       0.072600
     17 CBF         -4.0300    -2.3310    -0.0020 c3         1 H86      -0.579700
     18 PBI         -4.8960    -1.2890     1.1820 p5         1 H86       1.291500
     19 OAF         -5.5820    -0.1860     0.4500 o          1 H86      -0.897500
     20 OAG         -5.8460    -2.0280     2.0600 o          1 H86      -0.897500
     21 OAC         -3.8300    -0.6780     2.0260 o          1 H86      -0.897500
     22 PBH         -5.2100    -3.5300    -0.6310 p5         1 H86       1.291500
     23 OAD         -4.5450    -4.1930    -1.7900 o          1 H86      -0.897500
     24 OAE         -5.4690    -4.5800     0.3950 o          1 H86      -0.897500
     25 OAB         -6.4720    -2.8890    -1.0960 o          1 H86      -0.897500
     26 CAO         -2.5490     0.7580    -0.6110 ca         1 H86       0.026700
     27 CBE         -1.4290     1.6310    -0.4640 cp         1 H86      -0.075000
     28 CBD         -1.6520     3.1060    -0.3440 cp         1 H86       0.043000
     29 CAK         -0.7750     4.0320    -0.9620 ca         1 H86      -0.137000
     30 CBA         -0.9880     5.4140    -0.8490 ca         1 H86       0.165000
     31 FAH         -0.1400     6.2760    -1.4500 f          1 H86      -0.197000
     32 CAJ         -2.0770     5.9080    -0.1200 ca         1 H86      -0.238000
     33 CBB         -2.9540     5.0080     0.4990 ca         1 H86       0.165000
     34 FAI         -4.0030     5.4780     1.2080 f          1 H86      -0.197000
     35 CAL         -2.7490     3.6240     0.3900 ca         1 H86      -0.137000
     36 HAA1        13.9180    -2.6090     1.3160 hc         1 H86       0.027367
     37 HAA2        14.0580    -2.4820    -0.4540 hc         1 H86       0.027367
     38 HAA3        14.9310    -1.3410     0.5920 hc         1 H86       0.027367
     39 HAP1        12.7790    -0.3650     1.3790 hc         1 H86       0.035200
     40 HAP2        12.9180    -0.2390    -0.3750 hc         1 H86       0.035200
     41 HAQ1        11.4570    -2.2690    -0.6360 hc         1 H86       0.036200
     42 HAQ2        11.3180    -2.3950     1.1170 hc         1 H86       0.036200
     43 HAR1        10.2150    -0.1390     1.1920 hc         1 H86       0.035200
     44 HAR2        10.3530    -0.0130    -0.5620 hc         1 H86       0.035200
     45 HAS1         8.8970    -2.0440    -0.8220 hc         1 H86       0.036700
     46 HAS2         8.7590    -2.1700     0.9320 hc         1 H86       0.036700
     47 HAT1         7.6550     0.0860     1.0070 hc         1 H86       0.035200
     48 HAT2         7.7940     0.2120    -0.7470 hc         1 H86       0.035200
     49 HAU1         6.3370    -1.8190    -1.0080 hc         1 H86       0.038200
     50 HAU2         6.1990    -1.9450     0.7460 hc         1 H86       0.038200
     51 HAV1         5.0960     0.3120     0.8220 hc         1 H86       0.035200
     52 HAV2         5.2340     0.4380    -0.9320 hc         1 H86       0.035200
     53 HAW1         3.7730    -1.5900    -1.1950 hc         1 H86       0.052700
     54 HAW2         3.6350    -1.7170     0.5610 hc         1 H86       0.052700
     55 HAX1         2.5240     0.5250     0.6450 h1         1 H86       0.026200
     56 HAX2         2.6650     0.6540    -1.1300 h1         1 H86       0.026200
     57 HAM          0.7210     1.7940    -0.2920 ha         1 H86       0.089000
     58 HAN         -0.8620    -2.2000    -0.7160 h4         1 H86       0.161000
     59 HAY1        -4.1510    -0.9480    -1.6840 h1         1 H86       0.072700
     60 HAY2        -2.9600    -2.2210    -1.8960 h1         1 H86       0.072700
     61 HBF         -3.2630    -2.8920     0.5380 hc         1 H86       0.040700
     62 HAO         -3.5820     1.1030    -0.6480 h4         1 H86       0.254000
     63 HAK          0.0700     3.6770    -1.5450 ha         1 H86       0.181500
     64 HAJ         -2.2390     6.9780    -0.0330 ha         1 H86       0.113000
     65 HAL         -3.4380     2.9520     0.8950 ha         1 H86       0.181500
@<TRIPOS>BOND
     1     1     2 1   
     2     1    36 1   
     3     1    37 1   
     4     1    38 1   
     5     2     3 1   
     6     2    39 1   
     7     2    40 1   
     8     3     4 1   
     9     3    41 1   
    10     3    42 1   
    11     4     5 1   
    12     4    43 1   
    13     4    44 1   
    14     5     6 1   
    15     5    45 1   
    16     5    46 1   
    17     6     7 1   
    18     6    47 1   
    19     6    48 1   
    20     7     8 1   
    21     7    49 1   
    22     7    50 1   
    23     8     9 1   
    24     8    51 1   
    25     8    52 1   
    26     9    10 1   
    27     9    53 1   
    28     9    54 1   
    29    10    11 1   
    30    10    55 1   
    31    10    56 1   
    32    11    12 1   
    33    12    13 ar  
    34    12    14 ar  
    35    13    27 ar  
    36    13    57 1   
    37    14    15 1   
    38    14    58 1   
    39    15    16 1   
    40    15    26 2   
    41    16    17 1   
    42    16    59 1   
    43    16    60 1   
    44    17    18 1   
    45    17    22 1   
    46    17    61 1   
    47    18    19 1   
    48    18    20 1   
    49    18    21 1   
    50    22    23 1   
    51    22    24 1   
    52    22    25 1   
    53    26    27 ar  
    54    26    62 1   
    55    27    28 1   
    56    28    29 ar  
    57    28    35 ar  
    58    29    30 ar  
    59    29    63 1   
    60    30    31 1   
    61    30    32 ar  
    62    32    33 ar  
    63    32    64 1   
    64    33    34 1   
    65    33    35 ar  
    66    35    65 1   
@<TRIPOS>SUBSTRUCTURE
     1 H86         1 TEMP              0 ****  ****    0 ROOT
