@<TRIPOS>MOLECULE
H86
   65    66     1     0     0
SMALL
abcg2


@<TRIPOS>ATOM
      1 CAA         13.8710    -1.6720     0.4990 c3         1 H86      -0.087100
      2 CAP         12.6460    -0.7680     0.4640 c3         1 H86      -0.075400
      3 CAQ         11.3450    -1.5470     0.3130 c3         1 H86      -0.076400
      4 CAR         10.1080    -0.6580     0.2750 c3         1 H86      -0.074400
      5 CAS          8.8110    -1.4390     0.1100 c3         1 H86      -0.074400
      6 CAT          7.5750    -0.5490     0.0700 c3         1 H86      -0.074400
      7 CAU          6.2780    -1.3270    -0.1090 c3         1 H86      -0.074400
      8 CAV          5.0480    -0.4290    -0.1470 c3         1 H86      -0.074400
      9 CAW          3.7530    -1.2080    -0.3500 c3         1 H86      -0.081400
     10 CAX          2.5600    -0.2780    -0.3750 c3         1 H86       0.173600
     11 OAZ          1.3880    -1.0550    -0.6080 os         1 H86      -0.351100
     12 CBC          0.2070    -0.4330    -0.6700 ca         1 H86       0.055100
     13 CAM          0.0080     0.9360    -0.4910 ca         1 H86      -0.179000
     14 CAN         -0.8960    -1.2320    -0.9220 ca         1 H86      -0.137000
     15 NBG         -2.1180    -0.6990    -1.0030 na         1 H86       0.113300
     16 CAY         -3.2900    -1.5890    -1.2140 c3         1 H86       0.072600
     17 CBF         -4.0130    -1.9740     0.0650 c3         1 H86      -0.579700
     18 PBI         -4.6140    -0.4550     0.9780 p5         1 H86       1.291500
     19 OAF         -5.1780     0.4810    -0.1080 o          1 H86      -0.897500
     20 OAG         -5.6320    -0.9020     2.0250 o          1 H86      -0.897500
     21 OAC         -3.3330     0.1380     1.6180 o          1 H86      -0.897500
     22 PBH         -5.3240    -3.2380    -0.4100 p5         1 H86       1.291500
     23 OAD         -4.5980    -4.1720    -1.4030 o          1 H86      -0.897500
     24 OAE         -5.7100    -3.9620     0.8830 o          1 H86      -0.897500
     25 OAB         -6.4720    -2.4630    -1.0680 o          1 H86      -0.897500
     26 CAO         -2.3380     0.5990    -0.8060 ca         1 H86       0.026700
     27 CBE         -1.2760     1.4520    -0.5550 cp         1 H86      -0.075000
     28 CBD         -1.5630     2.8730    -0.3030 cp         1 H86       0.043000
     29 CAK         -0.7250     3.8680    -0.8000 ca         1 H86      -0.137000
     30 CBA         -1.0450     5.1860    -0.5430 ca         1 H86       0.165000
     31 FAH         -0.2480     6.1480    -1.0240 f          1 H86      -0.197000
     32 CAJ         -2.1600     5.5580     0.1830 ca         1 H86      -0.238000
     33 CBB         -2.9610     4.5390     0.6620 ca         1 H86       0.165000
     34 FAI         -4.0430     4.8700     1.3790 f          1 H86      -0.197000
     35 CAL         -2.6950     3.2030     0.4430 ca         1 H86      -0.137000
     36 HAA1        13.8220    -2.3670     1.3380 hc         1 H86       0.027367
     37 HAA2        13.9490    -2.2640    -0.4150 hc         1 H86       0.027367
     38 HAA3        14.7930    -1.0980     0.5980 hc         1 H86       0.027367
     39 HAP1        12.6060    -0.1680     1.3780 hc         1 H86       0.035200
     40 HAP2        12.7380    -0.0560    -0.3620 hc         1 H86       0.035200
     41 HAQ1        11.3870    -2.1480    -0.6030 hc         1 H86       0.036200
     42 HAQ2        11.2520    -2.2620     1.1390 hc         1 H86       0.036200
     43 HAR1        10.0610    -0.0630     1.1940 hc         1 H86       0.035200
     44 HAR2        10.2060     0.0620    -0.5460 hc         1 H86       0.035200
     45 HAS1         8.8590    -2.0330    -0.8100 hc         1 H86       0.036700
     46 HAS2         8.7120    -2.1590     0.9300 hc         1 H86       0.036700
     47 HAT1         7.5220     0.0390     0.9940 hc         1 H86       0.035200
     48 HAT2         7.6780     0.1770    -0.7440 hc         1 H86       0.035200
     49 HAU1         6.3290    -1.9130    -1.0340 hc         1 H86       0.038200
     50 HAU2         6.1710    -2.0530     0.7050 hc         1 H86       0.038200
     51 HAV1         4.9910     0.1450     0.7840 hc         1 H86       0.035200
     52 HAV2         5.1630     0.3050    -0.9520 hc         1 H86       0.035200
     53 HAW1         3.8010    -1.7650    -1.2900 hc         1 H86       0.052700
     54 HAW2         3.6300    -1.9390     0.4540 hc         1 H86       0.052700
     55 HAX1         2.4750     0.2550     0.5780 h1         1 H86       0.026200
     56 HAX2         2.6770     0.4680    -1.1690 h1         1 H86       0.026200
     57 HAM          0.8360     1.5990    -0.2740 ha         1 H86       0.089000
     58 HAN         -0.8080    -2.2990    -1.0690 h4         1 H86       0.161000
     59 HAY1        -3.9710    -1.0510    -1.8700 h1         1 H86       0.072700
     60 HAY2        -2.9240    -2.4660    -1.7420 h1         1 H86       0.072700
     61 HBF         -3.2960    -2.5000     0.7110 hc         1 H86       0.040700
     62 HAO         -3.3720     0.9230    -0.8780 h4         1 H86       0.254000
     63 HAK          0.1470     3.6260    -1.3950 ha         1 H86       0.181500
     64 HAJ         -2.3950     6.5990     0.3660 ha         1 H86       0.113000
     65 HAL         -3.3170     2.4190     0.8640 ha         1 H86       0.181500
@<TRIPOS>BOND
     1     1     2 1   
     2     1    36 1   
     3     1    37 1   
     4     1    38 1   
     5     2     3 1   
     6     2    39 1   
     7     2    40 1   
     8     3     4 1   
     9     3    41 1   
    10     3    42 1   
    11     4     5 1   
    12     4    43 1   
    13     4    44 1   
    14     5     6 1   
    15     5    45 1   
    16     5    46 1   
    17     6     7 1   
    18     6    47 1   
    19     6    48 1   
    20     7     8 1   
    21     7    49 1   
    22     7    50 1   
    23     8     9 1   
    24     8    51 1   
    25     8    52 1   
    26     9    10 1   
    27     9    53 1   
    28     9    54 1   
    29    10    11 1   
    30    10    55 1   
    31    10    56 1   
    32    11    12 1   
    33    12    13 ar  
    34    12    14 ar  
    35    13    27 ar  
    36    13    57 1   
    37    14    15 1   
    38    14    58 1   
    39    15    16 1   
    40    15    26 2   
    41    16    17 1   
    42    16    59 1   
    43    16    60 1   
    44    17    18 1   
    45    17    22 1   
    46    17    61 1   
    47    18    19 1   
    48    18    20 1   
    49    18    21 1   
    50    22    23 1   
    51    22    24 1   
    52    22    25 1   
    53    26    27 ar  
    54    26    62 1   
    55    27    28 1   
    56    28    29 ar  
    57    28    35 ar  
    58    29    30 ar  
    59    29    63 1   
    60    30    31 1   
    61    30    32 ar  
    62    32    33 ar  
    63    32    64 1   
    64    33    34 1   
    65    33    35 ar  
    66    35    65 1   
@<TRIPOS>SUBSTRUCTURE
     1 H86         1 TEMP              0 ****  ****    0 ROOT
