@<TRIPOS>MOLECULE
H88
   65    69     1     0     0
SMALL
abcg2


@<TRIPOS>ATOM
      1 C1          12.2190   -20.0850    27.7490 c3         1 H88       0.171600
      2 C2          11.2610   -20.8660    26.8740 c3         1 H88      -0.160400
      3 C4          18.2740   -19.3490    22.0170 cp         1 H88      -0.035000
      4 C6          11.2030   -20.6260    23.1220 ca         1 H88      -0.043000
      5 C7          11.4100   -21.8200    22.4210 ca         1 H88      -0.047300
      6 C9          11.8690   -20.5120    20.4270 ca         1 H88      -0.094000
      7 C10         20.5770   -18.8650    22.5960 ca         1 H88      -0.116000
      8 C11         11.3170   -19.3990    22.4840 ca         1 H88      -0.099000
      9 C12         11.2720   -23.1590    23.0780 c3         1 H88      -0.048800
     10 C13         20.8160   -20.2180    22.8140 ca         1 H88       0.237000
     11 C14         19.7820   -21.1330    22.6410 ca         1 H88      -0.116000
     12 C18         11.6690   -19.3490    21.1470 ca         1 H88       0.024600
     13 C20         10.6310   -17.5230    20.0570 c          1 H88       0.563200
     14 C21         10.7330   -16.3130    19.2820 cc         1 H88      -0.305200
     15 C22         11.9340   -15.7980    18.9750 cd         1 H88      -0.062200
     16 C23         13.1330   -16.4030    19.4480 ca         1 H88      -0.225800
     17 C24         13.0830   -17.5420    20.2510 ca         1 H88       0.170600
     18 C25         22.9590   -21.6680    20.8320 c3         1 H88      -0.382100
     19 C15         18.5230   -20.6990    22.2620 ca         1 H88      -0.082500
     20 C26         14.3370   -18.0500    20.7530 ca         1 H88      -0.099000
     21 C27         15.5190   -17.3980    20.2950 ca         1 H88       0.287000
     22 C29         14.3830   -15.8510    19.0890 ca         1 H88       0.401900
     23 C3          11.7720   -20.9740    25.4540 c          1 H88       0.616100
     24 C30         14.5260   -19.1030    21.6830 ca         1 H88      -0.077000
     25 C31         15.7710   -19.5040    22.0820 ca         1 H88      -0.107000
     26 C32         16.9410   -18.8910    21.5900 cp         1 H88      -0.014000
     27 C33         16.7870   -17.8460    20.7120 ca         1 H88      -0.085000
     28 C5          19.3220   -18.4440    22.1920 ca         1 H88      -0.082500
     29 C8          11.7410   -21.7330    21.0710 ca         1 H88      -0.104000
     30 N16         22.0910   -20.6610    23.2420 nu         1 H88      -0.868100
     31 N19         11.8400   -18.0840    20.5020 n          1 H88      -0.202200
     32 N28         15.5270   -16.3230    19.4610 nb         1 H88      -0.677000
     33 N5          10.8750   -20.6410    24.4950 ns         1 H88      -0.166000
     34 O18         24.5010   -21.1860    22.9130 o          1 H88      -0.524500
     35 O19         23.4780   -19.2440    21.6890 o          1 H88      -0.524500
     36 O4          12.9010   -21.3480    25.1920 o          1 H88      -0.594100
     37 S17         23.3840   -20.6040    22.1900 s6         1 H88       1.187100
     38 H13         11.8410   -20.0900    28.7780 h1         1 H88       0.032200
     39 H1          13.1930   -20.5880    27.7640 h1         1 H88       0.032200
     40 H23         10.2660   -20.4190    26.9100 hc         1 H88       0.067200
     41 H2          11.1640   -21.8790    27.2740 hc         1 H88       0.067200
     42 H9          12.1360   -20.4680    19.3790 ha         1 H88       0.128000
     43 H10         21.3570   -18.1370    22.7660 ha         1 H88       0.131000
     44 H11         11.1750   -18.4840    23.0440 ha         1 H88       0.135000
     45 H12         12.1790   -23.4200    23.6250 hc         1 H88       0.050033
     46 H121        10.4470   -23.1760    23.7890 hc         1 H88       0.050033
     47 H122        11.1000   -23.9360    22.3350 hc         1 H88       0.050033
     48 H141        19.9610   -22.1890    22.8020 ha         1 H88       0.131000
     49 H21          9.8100   -15.8650    18.9400 ha         1 H88       0.214000
     50 H22         12.0120   -14.9060    18.3650 ha         1 H88       0.191000
     51 H252        23.7840   -21.6430    20.1230 h1         1 H88       0.103367
     52 H25         22.8140   -22.6800    21.2020 h1         1 H88       0.103367
     53 H251        22.0510   -21.3060    20.3540 h1         1 H88       0.103367
     54 H15         17.7390   -21.4340    22.1260 ha         1 H88       0.124500
     55 H29         14.3890   -14.9770    18.4440 h4         1 H88       0.021100
     56 H30         13.6950   -19.6060    22.1400 ha         1 H88       0.135000
     57 H31         15.8450   -20.2940    22.8170 ha         1 H88       0.127000
     58 H33         17.6450   -17.3310    20.2990 ha         1 H88       0.136000
     59 H5          19.1510   -17.3850    22.0470 ha         1 H88       0.124500
     60 H8          11.8960   -22.6450    20.5080 ha         1 H88       0.120000
     61 HN16        22.0760   -21.5370    23.7560 hn         1 H88       0.487000
     62 HN5         10.0130   -20.2000    24.7770 hn         1 H88       0.161000
     63 O1          12.3140   -18.7770    27.2320 oh         1 H88      -0.666000
     64 H3          12.9910   -18.3040    27.7250 ho         1 H88       0.450000
     65 O25          9.5770   -18.0770    20.3190 o          1 H88      -0.526000
@<TRIPOS>BOND
     1     1     2 1   
     2     1    38 1   
     3     1    39 1   
     4     1    63 1   
     5     2    23 1   
     6     2    40 1   
     7     2    41 1   
     8     3    19 ar  
     9     3    26 1   
    10     3    28 ar  
    11     4     5 ar  
    12     4     8 ar  
    13     4    33 1   
    14     5     9 1   
    15     5    29 ar  
    16     6    12 ar  
    17     6    29 ar  
    18     6    42 1   
    19     7    10 ar  
    20     7    28 ar  
    21     7    43 1   
    22     8    12 ar  
    23     8    44 1   
    24     9    45 1   
    25     9    46 1   
    26     9    47 1   
    27    10    11 ar  
    28    10    30 1   
    29    11    19 ar  
    30    11    48 1   
    31    12    31 1   
    32    13    14 1   
    33    13    31 1   
    34    13    65 2   
    35    14    15 2   
    36    14    49 1   
    37    15    16 1   
    38    15    50 1   
    39    16    17 ar  
    40    16    22 ar  
    41    17    20 ar  
    42    17    31 1   
    43    18    37 1   
    44    18    51 1   
    45    18    52 1   
    46    18    53 1   
    47    19    54 1   
    48    20    21 ar  
    49    20    24 ar  
    50    21    27 ar  
    51    21    32 ar  
    52    22    32 ar  
    53    22    55 1   
    54    23    33 1   
    55    23    36 2   
    56    24    25 ar  
    57    24    56 1   
    58    25    26 ar  
    59    25    57 1   
    60    26    27 ar  
    61    27    58 1   
    62    28    59 1   
    63    29    60 1   
    64    30    37 1   
    65    30    61 1   
    66    33    62 1   
    67    34    37 2   
    68    35    37 2   
    69    63    64 1   
@<TRIPOS>SUBSTRUCTURE
     1 H88         1 TEMP              0 ****  ****    0 ROOT
