@<TRIPOS>MOLECULE
H88
   65    69     1     0     0
SMALL
No Charge or Current Charge


@<TRIPOS>ATOM
      1 C1          10.2170   -20.1640    28.0770 c3         1 H88       0.171600
      2 C2           9.9010   -21.2390    27.0260 c3         1 H88      -0.160400
      3 C4          18.5850   -19.4740    21.6540 cp         1 H88      -0.035000
      4 C6          11.1960   -20.6210    23.4610 ca         1 H88      -0.043000
      5 C7          11.7440   -21.7500    22.8020 ca         1 H88      -0.047300
      6 C9          12.4890   -20.2980    20.9820 ca         1 H88      -0.094000
      7 C10         21.0320   -19.2310    21.6340 ca         1 H88      -0.116000
      8 C11         11.2740   -19.3530    22.8550 ca         1 H88      -0.099000
      9 C12         11.6170   -23.1690    23.3520 c3         1 H88      -0.048800
     10 C13         21.1880   -20.4940    22.2380 ca         1 H88       0.237000
     11 C14         20.0400   -21.2370    22.5570 ca         1 H88      -0.116000
     12 C18         11.9340   -19.1710    21.6220 ca         1 H88       0.024600
     13 C20         10.8210   -17.1300    20.7790 c          1 H88       0.563200
     14 C21         10.8830   -16.0760    19.7600 cc         1 H88      -0.305200
     15 C22         12.0090   -15.8210    19.0250 cd         1 H88      -0.062200
     16 C23         13.2420   -16.5350    19.3230 ca         1 H88      -0.225800
     17 C24         13.2880   -17.4810    20.3670 ca         1 H88       0.170600
     18 C25         23.7620   -20.9120    20.1610 c3         1 H88      -0.382100
     19 C15         18.7570   -20.7370    22.2700 ca         1 H88      -0.082500
     20 C26         14.5880   -17.9660    20.7330 ca         1 H88      -0.099000
     21 C27         15.6960   -17.6410    19.9020 ca         1 H88       0.287000
     22 C29         14.3950   -16.2600    18.5780 ca         1 H88       0.401900
     23 C3          10.9510   -21.2500    25.9150 c          1 H88       0.616100
     24 C30         14.8490   -18.6930    21.9240 ca         1 H88      -0.077000
     25 C31         16.1310   -19.1830    22.2130 ca         1 H88      -0.107000
     26 C32         17.2180   -18.9440    21.3480 cp         1 H88      -0.014000
     27 C33         16.9720   -18.1510    20.2050 ca         1 H88      -0.085000
     28 C5          19.7500   -18.7300    21.3450 ca         1 H88      -0.082500
     29 C8          12.3930   -21.5710    21.5660 ca         1 H88      -0.104000
     30 N16         22.4370   -21.0380    22.5470 nu         1 H88      -0.868100
     31 N19         12.0220   -17.8640    21.0040 n          1 H88      -0.202200
     32 N28         15.5850   -16.8270    18.8330 nb         1 H88      -0.677000
     33 N5          10.5300   -20.7060    24.7110 ns         1 H88      -0.166000
     34 O18         24.8100   -21.7510    22.4390 o          1 H88      -0.524500
     35 O19         24.2110   -19.2900    22.2190 o          1 H88      -0.524500
     36 O4          12.0690   -21.7270    26.0870 o          1 H88      -0.594100
     37 S17         23.9380   -20.6970    21.9200 s6         1 H88       1.187100
     38 H13          9.4970   -20.2490    28.9020 h1         1 H88       0.032200
     39 H1          11.2210   -20.3350    28.4890 h1         1 H88       0.032200
     40 H23          8.9060   -21.0390    26.6110 hc         1 H88       0.067200
     41 H2           9.9080   -22.2140    27.5260 hc         1 H88       0.067200
     42 H9          12.9830   -20.1940    20.0190 ha         1 H88       0.128000
     43 H10         21.8940   -18.6190    21.3900 ha         1 H88       0.131000
     44 H11         10.8510   -18.4950    23.3710 ha         1 H88       0.135000
     45 H12         12.4550   -23.4110    24.0160 hc         1 H88       0.050033
     46 H121        10.6840   -23.3110    23.9100 hc         1 H88       0.050033
     47 H122        11.6170   -23.9100    22.5440 hc         1 H88       0.050033
     48 H141        20.1370   -22.2110    23.0280 ha         1 H88       0.131000
     49 H21          9.9530   -15.5450    19.5850 ha         1 H88       0.214000
     50 H22         11.9840   -15.0570    18.2490 ha         1 H88       0.191000
     51 H252        24.7410   -20.7260    19.7090 h1         1 H88       0.103367
     52 H25         23.4330   -21.9410    19.9850 h1         1 H88       0.103367
     53 H251        23.0190   -20.1910    19.8060 h1         1 H88       0.103367
     54 H15         17.8900   -21.3450    22.5150 ha         1 H88       0.124500
     55 H29         14.3670   -15.5570    17.7460 h4         1 H88       0.021100
     56 H30         14.0840   -18.8630    22.6720 ha         1 H88       0.135000
     57 H31         16.2850   -19.7370    23.1360 ha         1 H88       0.127000
     58 H33         17.7910   -17.9190    19.5310 ha         1 H88       0.136000
     59 H5          19.6630   -17.7460    20.8900 ha         1 H88       0.124500
     60 H8          12.8170   -22.4260    21.0440 ha         1 H88       0.120000
     61 HN16        22.4790   -21.9950    22.8720 hn         1 H88       0.487000
     62 HN5          9.6100   -20.2860    24.7320 hn         1 H88       0.161000
     63 O1          10.1300   -18.8690    27.4770 oh         1 H88      -0.666000
     64 H3          10.2900   -18.2100    28.1900 ho         1 H88       0.450000
     65 O25          9.7660   -17.3800    21.3450 o          1 H88      -0.526000
@<TRIPOS>BOND
     1     1     2 1   
     2     1    38 1   
     3     1    39 1   
     4     1    63 1   
     5     2    23 1   
     6     2    40 1   
     7     2    41 1   
     8     3    19 ar  
     9     3    26 1   
    10     3    28 ar  
    11     4     5 ar  
    12     4     8 ar  
    13     4    33 1   
    14     5     9 1   
    15     5    29 ar  
    16     6    12 ar  
    17     6    29 ar  
    18     6    42 1   
    19     7    10 ar  
    20     7    28 ar  
    21     7    43 1   
    22     8    12 ar  
    23     8    44 1   
    24     9    45 1   
    25     9    46 1   
    26     9    47 1   
    27    10    11 ar  
    28    10    30 1   
    29    11    19 ar  
    30    11    48 1   
    31    12    31 1   
    32    13    14 1   
    33    13    31 1   
    34    13    65 2   
    35    14    15 2   
    36    14    49 1   
    37    15    16 1   
    38    15    50 1   
    39    16    17 ar  
    40    16    22 ar  
    41    17    20 ar  
    42    17    31 1   
    43    18    37 1   
    44    18    51 1   
    45    18    52 1   
    46    18    53 1   
    47    19    54 1   
    48    20    21 ar  
    49    20    24 ar  
    50    21    27 ar  
    51    21    32 ar  
    52    22    32 ar  
    53    22    55 1   
    54    23    33 1   
    55    23    36 2   
    56    24    25 ar  
    57    24    56 1   
    58    25    26 ar  
    59    25    57 1   
    60    26    27 ar  
    61    27    58 1   
    62    28    59 1   
    63    29    60 1   
    64    30    37 1   
    65    30    61 1   
    66    33    62 1   
    67    34    37 2   
    68    35    37 2   
    69    63    64 1   
@<TRIPOS>SUBSTRUCTURE
     1 H88         1 TEMP              0 ****  ****    0 ROOT
