@<TRIPOS>MOLECULE
H89
   52    56     1     0     0
SMALL
bcc


@<TRIPOS>ATOM
      1 C1          -3.0390    -3.9390    -1.4630 ca         1 H89       0.387200
      2 C2          -2.8370    -3.0730    -0.3990 ca         1 H89      -0.221800
      3 C3          -3.8920    -2.8210     0.4700 ca         1 H89      -0.067300
      4 C4          -5.1010    -3.4550     0.2210 ca         1 H89      -0.221800
      5 C5          -5.2000    -4.3060    -0.8700 ca         1 H89       0.387200
      6 N6          -4.1940    -4.5500    -1.7020 nb         1 H89      -0.675000
      7 C7          -3.7370    -1.8580     1.6180 c3         1 H89       0.121600
      8 N8          -3.9620    -0.4980     1.1930 na         1 H89      -0.029800
      9 C9          -3.0430     0.3740     0.7160 ca         1 H89       0.425800
     10 C10         -3.7470     1.5140     0.2930 ca         1 H89      -0.288200
     11 C11         -5.1050     1.1900     0.5540 cc         1 H89       0.417800
     12 N12         -5.2040    -0.0080     1.0750 nd         1 H89      -0.569100
     13 N13         -1.7360     0.1770     0.6660 nb         1 H89      -0.741000
     14 C14         -1.0230     1.1770     0.1660 cp         1 H89       0.488800
     15 C15         -1.6250     2.3750    -0.2840 ca         1 H89      -0.266300
     16 C16         -2.9900     2.5710    -0.2300 ca         1 H89      -0.025600
     17 C18         -3.6260     3.8680    -0.7200 c          1 H89       0.926200
     18 O19         -4.8650     3.9250    -0.6300 o          1 H89      -0.810300
     19 O20         -2.8530     4.7370    -1.1570 o          1 H89      -0.810300
     20 C21          0.4400     0.9730     0.1030 cp         1 H89      -0.155500
     21 C22          1.3180     1.9480    -0.3820 ca         1 H89      -0.070500
     22 C23          2.6810     1.7350    -0.4290 ca         1 H89      -0.204500
     23 C24          3.2220     0.5260     0.0130 ca         1 H89       0.129100
     24 C25          2.3650    -0.4600     0.4990 ca         1 H89      -0.204500
     25 C26          0.9990    -0.2280     0.5390 ca         1 H89      -0.070500
     26 O27          4.5590     0.4030    -0.0690 os         1 H89      -0.322900
     27 C28          6.6420    -0.6590     0.2100 ca         1 H89      -0.087300
     28 C29          7.4160    -0.0820     1.2130 ca         1 H89      -0.102500
     29 C30          8.7840     0.0770     1.0450 ca         1 H89      -0.136000
     30 C31          9.3920    -0.3370    -0.1340 ca         1 H89      -0.123000
     31 C32          8.6260    -0.9120    -1.1400 ca         1 H89      -0.136000
     32 C33          7.2580    -1.0700    -0.9680 ca         1 H89      -0.102500
     33 C34          5.1610    -0.8040     0.3850 c3         1 H89       0.188700
     34 H1          -2.2270    -4.1520    -2.1490 h4         1 H89       0.010600
     35 H2          -1.8720    -2.6050    -0.2550 ha         1 H89       0.150500
     36 H4          -5.9570    -3.2990     0.8650 ha         1 H89       0.150500
     37 H5          -6.1350    -4.8150    -1.0770 h4         1 H89       0.010600
     38 H7          -4.4420    -2.0860     2.4160 h1         1 H89       0.066200
     39 H7A         -2.7300    -1.9140     2.0320 h1         1 H89       0.066200
     40 H11         -5.9830     1.7890     0.3810 h4         1 H89       0.071800
     41 H15         -1.0200     3.1730    -0.6880 ha         1 H89       0.159000
     42 H22          0.9510     2.9010    -0.7370 ha         1 H89       0.148000
     43 H23          3.3370     2.5070    -0.8090 ha         1 H89       0.131000
     44 H25          2.7370    -1.4110     0.8530 ha         1 H89       0.131000
     45 H26          0.3540    -1.0070     0.9210 ha         1 H89       0.148000
     46 H29          6.9470     0.2400     2.1350 ha         1 H89       0.134000
     47 H30          9.3760     0.5220     1.8340 ha         1 H89       0.128000
     48 H31         10.4590    -0.2170    -0.2660 ha         1 H89       0.125000
     49 H32          9.0950    -1.2410    -2.0590 ha         1 H89       0.128000
     50 H33          6.6670    -1.5230    -1.7550 ha         1 H89       0.134000
     51 H34          4.9120    -0.9810     1.4360 h1         1 H89       0.039200
     52 H34A         4.7880    -1.6550    -0.1950 h1         1 H89       0.039200
@<TRIPOS>BOND
     1     1     2 ar  
     2     1     6 ar  
     3     1    34 1   
     4     2     3 ar  
     5     2    35 1   
     6     3     4 ar  
     7     3     7 1   
     8     4     5 ar  
     9     4    36 1   
    10     5     6 ar  
    11     5    37 1   
    12     7     8 1   
    13     7    38 1   
    14     7    39 1   
    15     8     9 1   
    16     8    12 1   
    17     9    10 ar  
    18     9    13 ar  
    19    10    11 1   
    20    10    16 ar  
    21    11    12 2   
    22    11    40 1   
    23    13    14 ar  
    24    14    15 ar  
    25    14    20 1   
    26    15    16 ar  
    27    15    41 1   
    28    16    17 1   
    29    17    18 1   
    30    17    19 1   
    31    20    21 ar  
    32    20    25 ar  
    33    21    22 ar  
    34    21    42 1   
    35    22    23 ar  
    36    22    43 1   
    37    23    24 ar  
    38    23    26 1   
    39    24    25 ar  
    40    24    44 1   
    41    25    45 1   
    42    26    33 1   
    43    27    28 ar  
    44    27    32 ar  
    45    27    33 1   
    46    28    29 ar  
    47    28    46 1   
    48    29    30 ar  
    49    29    47 1   
    50    30    31 ar  
    51    30    48 1   
    52    31    32 ar  
    53    31    49 1   
    54    32    50 1   
    55    33    51 1   
    56    33    52 1   
@<TRIPOS>SUBSTRUCTURE
     1 H89         1 TEMP              0 ****  ****    0 ROOT
