@<TRIPOS>MOLECULE
H89
   52    56     1     0     0
SMALL
No Charge or Current Charge


@<TRIPOS>ATOM
      1 C1          -2.4500    -4.5420    -0.7160 ca         1 H89       0.321900
      2 C2          -2.6870    -3.7030     0.3870 ca         1 H89      -0.138500
      3 C3          -3.7860    -2.8240     0.3650 ca         1 H89      -0.067300
      4 C4          -4.6050    -2.8390    -0.7810 ca         1 H89      -0.138500
      5 C5          -4.2960    -3.7110    -1.8400 ca         1 H89       0.321900
      6 N6          -3.2380    -4.5540    -1.8170 nb         1 H89      -0.675000
      7 C7          -4.0760    -1.8960     1.5420 c3         1 H89       0.150900
      8 N8          -4.3040    -0.4920     1.1490 na         1 H89      -0.059100
      9 C9          -3.2760     0.3550     0.7680 ca         1 H89       0.360500
     10 C10         -3.8890     1.5400     0.4740 ca         1 H89      -0.222900
     11 C11         -5.3020     1.3320     0.7040 cc         1 H89       0.417800
     12 N12         -5.5720     0.0860     1.1210 nd         1 H89      -0.569100
     13 N13         -1.9450     0.1720     0.6790 nb         1 H89      -0.741000
     14 C14         -1.1830     1.2120     0.2600 cp         1 H89       0.423500
     15 C15         -1.7660     2.4730    -0.0510 ca         1 H89      -0.183000
     16 C16         -3.1650     2.6740     0.0500 ca         1 H89      -0.025600
     17 C18         -3.8090     4.0200    -0.2760 c          1 H89       0.715600
     18 O19         -5.0190     4.1430    -0.1480 o          1 H89      -0.705000
     19 O20         -3.0880     4.9340    -0.6550 o          1 H89      -0.705000
     20 C21          0.2990     0.9620     0.1580 cp         1 H89      -0.155500
     21 C22          1.1240     1.7330    -0.7040 ca         1 H89      -0.052500
     22 C23          2.5060     1.4940    -0.7940 ca         1 H89      -0.186500
     23 C24          3.1070     0.4820    -0.0340 ca         1 H89       0.129100
     24 C25          2.3110    -0.3020     0.8250 ca         1 H89      -0.186500
     25 C26          0.9280    -0.0650     0.9160 ca         1 H89      -0.052500
     26 O27          4.4670     0.2960    -0.1660 os         1 H89      -0.346100
     27 C28          6.6500    -0.6480     0.1900 ca         1 H89      -0.087300
     28 C29          7.5330     0.1790     0.9140 ca         1 H89      -0.084500
     29 C30          8.8940     0.2400     0.5640 ca         1 H89      -0.118000
     30 C31          9.3790    -0.5230    -0.5110 ca         1 H89      -0.105000
     31 C32          8.5030    -1.3470    -1.2380 ca         1 H89      -0.118000
     32 C33          7.1430    -1.4090    -0.8890 ca         1 H89      -0.084500
     33 C34          5.1770    -0.7160     0.5690 c3         1 H89       0.211900
     34 H1          -1.6030    -5.2280    -0.7190 h4         1 H89       0.010600
     35 H2          -2.0160    -3.7400     1.2410 ha         1 H89       0.132500
     36 H4          -5.4710    -2.1870    -0.8570 ha         1 H89       0.132500
     37 H5          -4.9170    -3.7360    -2.7340 h4         1 H89       0.010600
     38 H7          -4.9640    -2.2610     2.0730 h1         1 H89       0.066200
     39 H7A         -3.2380    -1.9230     2.2500 h1         1 H89       0.066200
     40 H11         -6.1460     2.0000     0.5970 h4         1 H89       0.071800
     41 H15         -1.1300     3.2970    -0.3540 ha         1 H89       0.141000
     42 H22          0.6950     2.5150    -1.3260 ha         1 H89       0.130000
     43 H23          3.1150     2.0970    -1.4630 ha         1 H89       0.113000
     44 H25          2.7410    -1.0960     1.4280 ha         1 H89       0.113000
     45 H26          0.3380    -0.6820     1.5910 ha         1 H89       0.130000
     46 H29          7.1640     0.7740     1.7460 ha         1 H89       0.116000
     47 H30          9.5710     0.8800     1.1260 ha         1 H89       0.110000
     48 H31         10.4320    -0.4750    -0.7820 ha         1 H89       0.107000
     49 H32          8.8780    -1.9370    -2.0710 ha         1 H89       0.110000
     50 H33          6.4700    -2.0480    -1.4570 ha         1 H89       0.116000
     51 H34          5.0700    -0.5550     1.6500 h1         1 H89       0.039200
     52 H34A         4.7840    -1.7130     0.3310 h1         1 H89       0.039200
@<TRIPOS>BOND
     1     1     2 ar  
     2     1     6 ar  
     3     1    34 1   
     4     2     3 ar  
     5     2    35 1   
     6     3     4 ar  
     7     3     7 1   
     8     4     5 ar  
     9     4    36 1   
    10     5     6 ar  
    11     5    37 1   
    12     7     8 1   
    13     7    38 1   
    14     7    39 1   
    15     8     9 1   
    16     8    12 1   
    17     9    10 ar  
    18     9    13 ar  
    19    10    11 1   
    20    10    16 ar  
    21    11    12 2   
    22    11    40 1   
    23    13    14 ar  
    24    14    15 ar  
    25    14    20 1   
    26    15    16 ar  
    27    15    41 1   
    28    16    17 1   
    29    17    18 1   
    30    17    19 1   
    31    20    21 ar  
    32    20    25 ar  
    33    21    22 ar  
    34    21    42 1   
    35    22    23 ar  
    36    22    43 1   
    37    23    24 ar  
    38    23    26 1   
    39    24    25 ar  
    40    24    44 1   
    41    25    45 1   
    42    26    33 1   
    43    27    28 ar  
    44    27    32 ar  
    45    27    33 1   
    46    28    29 ar  
    47    28    46 1   
    48    29    30 ar  
    49    29    47 1   
    50    30    31 ar  
    51    30    48 1   
    52    31    32 ar  
    53    31    49 1   
    54    32    50 1   
    55    33    51 1   
    56    33    52 1   
@<TRIPOS>SUBSTRUCTURE
     1 H89         1 TEMP              0 ****  ****    0 ROOT
