@<TRIPOS>MOLECULE
H8A
   40    43     1     0     0
SMALL
No Charge or Current Charge


@<TRIPOS>ATOM
      1 C2           0.0330     0.6590    -0.9530 ca         1 H8A       0.230100
      2 C3           0.2060    -0.7350    -0.9710 ca         1 H8A      -0.248000
      3 C4           1.3760    -1.3210    -0.4500 ca         1 H8A       0.165000
      4 C5           2.3890    -0.4920     0.0900 ca         1 H8A      -0.273000
      5 C6           2.2000     0.9040     0.0730 ca         1 H8A       0.220100
      6 C7           1.0500     1.4630    -0.4300 ca         1 H8A      -0.253300
      7 C8           3.5310    -1.1340     0.6030 ca         1 H8A       0.467900
      8 O1          -1.1090     1.2360    -1.4550 os         1 H8A      -0.250200
      9 C10          2.6700    -3.1410     0.0430 ca         1 H8A       0.434900
     10 C14         -2.3700     0.8000    -1.1140 ca         1 H8A       0.094100
     11 C15         -3.4040     0.9180    -2.0560 ca         1 H8A      -0.091000
     12 C16         -4.7050     0.4920    -1.7330 ca         1 H8A      -0.105000
     13 C17         -4.9730    -0.0450    -0.4610 ca         1 H8A      -0.073000
     14 C18         -3.9410    -0.1550     0.4930 ca         1 H8A      -0.007000
     15 N9           3.6820    -2.4600     0.5800 nb         1 H8A      -0.361000
     16 N11          1.5310    -2.6590    -0.4670 nb         1 H8A      -0.307000
     17 N12          4.5690    -0.4740     1.1640 nv         1 H8A      -1.072900
     18 N13          2.8130    -4.4820     0.0200 nv         1 H8A      -1.052900
     19 C19         -2.6390     0.2730     0.1660 ca         1 H8A      -0.080000
     20 C20         -4.2170    -0.6960     1.7950 cg         1 H8A       0.321000
     21 N21         -4.4310    -1.1340     2.8570 n1         1 H8A      -0.445000
     22 C22          1.0660     2.9550    -0.2880 c5         1 H8A      -0.011400
     23 C23          2.5960     3.1160     0.0420 c5         1 H8A       0.148600
     24 O24          3.0860     1.8320     0.5530 os         1 H8A      -0.355100
     25 C25          0.1170     3.4620     0.8210 c3         1 H8A      -0.085100
     26 H1          -0.5710    -1.3680    -1.3890 ha         1 H8A       0.145000
     27 H2          -3.1960     1.3360    -3.0380 ha         1 H8A       0.135000
     28 H3          -5.5040     0.5800    -2.4660 ha         1 H8A       0.125000
     29 H4          -5.9820    -0.3720    -0.2180 ha         1 H8A       0.130000
     30 H5           4.5760     0.5380     1.0520 hn         1 H8A       0.508000
     31 H6           5.4680    -0.9440     1.2210 hn         1 H8A       0.508000
     32 H7           1.9850    -5.0450    -0.1530 hn         1 H8A       0.489000
     33 H8           3.5350    -4.8970     0.6030 hn         1 H8A       0.489000
     34 H9          -1.8450     0.2000     0.9050 ha         1 H8A       0.142000
     35 H10          0.8030     3.4710    -1.2200 hc         1 H8A       0.073700
     36 H11          3.1560     3.3480    -0.8740 h1         1 H8A       0.060700
     37 H12          2.7980     3.9120     0.7710 h1         1 H8A       0.060700
     38 H13          0.3340     2.9780     1.7810 hc         1 H8A       0.041033
     39 H14          0.2190     4.5450     0.9600 hc         1 H8A       0.041033
     40 H15         -0.9300     3.2550     0.5700 hc         1 H8A       0.041033
@<TRIPOS>BOND
     1     1     2 ar  
     2     1     6 ar  
     3     1     8 1   
     4     2     3 ar  
     5     2    26 1   
     6     3     4 ar  
     7     3    16 ar  
     8     4     5 ar  
     9     4     7 ar  
    10     5     6 ar  
    11     5    24 1   
    12     6    22 1   
    13     7    15 ar  
    14     7    17 1   
    15     8    10 1   
    16     9    15 ar  
    17     9    16 ar  
    18     9    18 1   
    19    10    11 ar  
    20    10    19 ar  
    21    11    12 ar  
    22    11    27 1   
    23    12    13 ar  
    24    12    28 1   
    25    13    14 ar  
    26    13    29 1   
    27    14    19 ar  
    28    14    20 1   
    29    17    30 1   
    30    17    31 1   
    31    18    32 1   
    32    18    33 1   
    33    19    34 1   
    34    20    21 3   
    35    22    23 1   
    36    22    25 1   
    37    22    35 1   
    38    23    24 1   
    39    23    36 1   
    40    23    37 1   
    41    25    38 1   
    42    25    39 1   
    43    25    40 1   
@<TRIPOS>SUBSTRUCTURE
     1 H8A         1 TEMP              0 ****  ****    0 ROOT
