@<TRIPOS>MOLECULE
H8A
   40    43     1     0     0
SMALL
abcg2


@<TRIPOS>ATOM
      1 C2          -0.1370     0.8170    -0.3740 ca         1 H8A       0.230100
      2 C3          -0.0370    -0.5600    -0.3460 ca         1 H8A      -0.248000
      3 C4           1.2180    -1.1740    -0.1550 ca         1 H8A       0.165000
      4 C5           2.3840    -0.3810    -0.0040 ca         1 H8A      -0.273000
      5 C6           2.2170     1.0110    -0.0450 ca         1 H8A       0.220100
      6 C7           0.9980     1.6140    -0.2250 ca         1 H8A      -0.253300
      7 C8           3.6170    -1.0940     0.1720 ca         1 H8A       0.467900
      8 O1          -1.3030     1.4910    -0.5480 os         1 H8A      -0.250200
      9 C10          2.4660    -3.0610     0.0470 ca         1 H8A       0.434900
     10 C14         -2.4720     0.7890    -0.6700 ca         1 H8A       0.094100
     11 C15         -2.9680     0.5090    -1.9350 ca         1 H8A      -0.091000
     12 C16         -4.1790    -0.1550    -2.0640 ca         1 H8A      -0.105000
     13 C17         -4.8890    -0.5480    -0.9420 ca         1 H8A      -0.073000
     14 C18         -4.3730    -0.2600     0.3220 ca         1 H8A      -0.007000
     15 N9           3.6360    -2.4130     0.1950 nb         1 H8A      -0.361000
     16 N11          1.2740    -2.5230    -0.1260 nb         1 H8A      -0.307000
     17 N12          4.7820    -0.4600     0.3220 nv         1 H8A      -1.072900
     18 N13          2.5490    -4.4110     0.0470 nv         1 H8A      -1.052900
     19 C19         -3.1610     0.4100     0.4680 ca         1 H8A      -0.080000
     20 C20         -5.0970    -0.6570     1.4870 cg         1 H8A       0.321000
     21 N21         -5.6800    -0.9800     2.4270 n1         1 H8A      -0.445000
     22 C22          1.1640     3.1030    -0.1000 c5         1 H8A      -0.011400
     23 C23          2.6930     3.2030    -0.2260 c5         1 H8A       0.148600
     24 O24          3.2180     1.8960     0.0970 os         1 H8A      -0.355100
     25 C25          0.6340     3.6370     1.2300 c3         1 H8A      -0.085100
     26 H1          -0.8980    -1.2030    -0.4660 ha         1 H8A       0.145000
     27 H2          -2.4130     0.8140    -2.8130 ha         1 H8A       0.135000
     28 H3          -4.5710    -0.3700    -3.0490 ha         1 H8A       0.125000
     29 H4          -5.8310    -1.0690    -1.0400 ha         1 H8A       0.130000
     30 H5           4.8600     0.5410     0.2980 hn         1 H8A       0.508000
     31 H6           5.6220    -1.0020     0.4320 hn         1 H8A       0.508000
     32 H7           1.7000    -4.9360     0.1700 hn         1 H8A       0.489000
     33 H8           3.3910    -4.8340     0.3960 hn         1 H8A       0.489000
     34 H9          -2.7680     0.6350     1.4510 ha         1 H8A       0.142000
     35 H10          0.6940     3.6450    -0.9230 hc         1 H8A       0.073700
     36 H11          2.9940     3.4430    -1.2470 h1         1 H8A       0.060700
     37 H12          3.1430     3.9250     0.4550 h1         1 H8A       0.060700
     38 H13          1.1130     3.1340     2.0720 hc         1 H8A       0.041033
     39 H14          0.8260     4.7070     1.3210 hc         1 H8A       0.041033
     40 H15         -0.4410     3.4830     1.3140 hc         1 H8A       0.041033
@<TRIPOS>BOND
     1     1     2 ar  
     2     1     6 ar  
     3     1     8 1   
     4     2     3 ar  
     5     2    26 1   
     6     3     4 ar  
     7     3    16 ar  
     8     4     5 ar  
     9     4     7 ar  
    10     5     6 ar  
    11     5    24 1   
    12     6    22 1   
    13     7    15 ar  
    14     7    17 1   
    15     8    10 1   
    16     9    15 ar  
    17     9    16 ar  
    18     9    18 1   
    19    10    11 ar  
    20    10    19 ar  
    21    11    12 ar  
    22    11    27 1   
    23    12    13 ar  
    24    12    28 1   
    25    13    14 ar  
    26    13    29 1   
    27    14    19 ar  
    28    14    20 1   
    29    17    30 1   
    30    17    31 1   
    31    18    32 1   
    32    18    33 1   
    33    19    34 1   
    34    20    21 3   
    35    22    23 1   
    36    22    25 1   
    37    22    35 1   
    38    23    24 1   
    39    23    36 1   
    40    23    37 1   
    41    25    38 1   
    42    25    39 1   
    43    25    40 1   
@<TRIPOS>SUBSTRUCTURE
     1 H8A         1 TEMP              0 ****  ****    0 ROOT
