@<TRIPOS>MOLECULE
H8B
   41    43     1     0     0
SMALL
bcc


@<TRIPOS>ATOM
      1 N01         -4.0540     0.1810    -1.3960 nb         1 H8B      -0.759000
      2 C02         -5.2460    -0.1160    -0.9320 ca         1 H8B       0.680200
      3 N02         -6.2680    -0.2380    -1.8150 nv         1 H8B      -0.957500
      4 C03         -5.5130    -0.2730     0.4650 ca         1 H8B      -0.291300
      5 C04         -4.4960    -0.1090     1.3470 ca         1 H8B      -0.048000
      6 C05         -3.1980     0.2150     0.8780 ca         1 H8B      -0.189300
      7 C06         -2.0910     0.4010     1.7300 ca         1 H8B      -0.097000
      8 C07         -0.8600     0.7110     1.2180 ca         1 H8B      -0.123000
      9 C08         -0.6860     0.8470    -0.1770 ca         1 H8B      -0.066300
     10 C09         -1.7530     0.6660    -1.0200 ca         1 H8B      -0.170300
     11 C10         -3.0360     0.3500    -0.5200 ca         1 H8B       0.454600
     12 C11          0.6600     1.2260    -0.7210 c3         1 H8B       0.184700
     13 O12          1.6060     0.2970    -0.2240 os         1 H8B      -0.305900
     14 C21          5.1570    -0.0190     0.2800 ca         1 H8B      -0.093000
     15 C22          5.6700     0.9950    -0.5220 ca         1 H8B      -0.169000
     16 C23          4.7960     1.7910    -1.2410 ca         1 H8B      -0.087000
     17 C24          3.4230     1.5820    -1.1630 ca         1 H8B      -0.222000
     18 C25          2.9200     0.5630    -0.3590 ca         1 H8B       0.166100
     19 C26          3.7930    -0.2520     0.3800 ca         1 H8B      -0.119300
     20 C27          3.2680    -1.3750     1.2300 c3         1 H8B       0.215100
     21 N28          2.9340    -2.5290     0.4140 n7         1 H8B      -0.790200
     22 C29          2.3650    -3.6080     1.1930 c3         1 H8B       0.144100
     23 H1          -6.0290    -0.3320    -2.7880 hn         1 H8B       0.422300
     24 H2          -7.1000    -0.7250    -1.5300 hn         1 H8B       0.422300
     25 H3          -6.5130    -0.5190     0.7990 ha         1 H8B       0.138000
     26 H4          -4.6680    -0.2230     2.4100 ha         1 H8B       0.135000
     27 H5          -2.2280     0.2970     2.8000 ha         1 H8B       0.130000
     28 H6          -0.0180     0.8520     1.8840 ha         1 H8B       0.139000
     29 H7          -1.6280     0.7590    -2.0930 ha         1 H8B       0.147000
     30 H8           0.6430     1.2240    -1.8160 h1         1 H8B       0.042700
     31 H9           0.9190     2.2410    -0.3970 h1         1 H8B       0.042700
     32 H11          6.7380     1.1590    -0.5790 ha         1 H8B       0.132000
     33 H12          5.1730     2.5870    -1.8700 ha         1 H8B       0.128000
     34 H13          2.7620     2.2150    -1.7390 ha         1 H8B       0.134000
     35 H14          4.0110    -1.6080     2.0090 h1         1 H8B       0.035700
     36 H15          2.3630    -1.0600     1.7550 h1         1 H8B       0.035700
     37 H16          3.7770    -2.8560    -0.0420 hn         1 H8B       0.348800
     38 H18          2.9770    -3.9200     2.0520 h1         1 H8B       0.027367
     39 H19          1.3900    -3.3070     1.5830 h1         1 H8B       0.027367
     40 H20          2.2100    -4.4810     0.5590 h1         1 H8B       0.027367
     41 H10          5.8330    -0.6420     0.8530 ha         1 H8B       0.127000
@<TRIPOS>BOND
     1     1     2 ar  
     2     1    11 ar  
     3     2     3 1   
     4     2     4 ar  
     5     3    23 1   
     6     3    24 1   
     7     4     5 ar  
     8     4    25 1   
     9     5     6 ar  
    10     5    26 1   
    11     6     7 ar  
    12     6    11 ar  
    13     7     8 ar  
    14     7    27 1   
    15     8     9 ar  
    16     8    28 1   
    17     9    10 ar  
    18     9    12 1   
    19    10    11 ar  
    20    10    29 1   
    21    12    13 1   
    22    12    30 1   
    23    12    31 1   
    24    13    18 1   
    25    14    15 ar  
    26    14    19 ar  
    27    14    41 1   
    28    15    16 ar  
    29    15    32 1   
    30    16    17 ar  
    31    16    33 1   
    32    17    18 ar  
    33    17    34 1   
    34    18    19 ar  
    35    19    20 1   
    36    20    21 1   
    37    20    35 1   
    38    20    36 1   
    39    21    22 1   
    40    21    37 1   
    41    22    38 1   
    42    22    39 1   
    43    22    40 1   
@<TRIPOS>SUBSTRUCTURE
     1 H8B         1 TEMP              0 ****  ****    0 ROOT
