@<TRIPOS>MOLECULE
H8B
   41    43     1     0     0
SMALL
No Charge or Current Charge


@<TRIPOS>ATOM
      1 N01         -3.6670    -0.4430    -1.1880 nb         1 H8B      -0.759000
      2 C02         -4.9000    -0.7330    -0.7980 ca         1 H8B       0.614900
      3 N02         -5.5290    -1.4710    -1.7140 nv         1 H8B      -1.067900
      4 C03         -5.4750    -0.3400     0.4130 ca         1 H8B      -0.208000
      5 C04         -4.7010     0.4280     1.2930 ca         1 H8B      -0.030000
      6 C05         -3.3890     0.7540     0.9030 ca         1 H8B      -0.124000
      7 C06         -2.5700     1.5230     1.7520 ca         1 H8B      -0.079000
      8 C07         -1.2620     1.8470     1.3610 ca         1 H8B      -0.105000
      9 C08         -0.7630     1.4070     0.1220 ca         1 H8B      -0.066300
     10 C09         -1.5860     0.6350    -0.7220 ca         1 H8B      -0.087000
     11 C10         -2.9020     0.2990    -0.3510 ca         1 H8B       0.324000
     12 C11          0.6580     1.7540    -0.3030 c3         1 H8B       0.207900
     13 O12          1.5230     0.6750     0.0830 os         1 H8B      -0.329100
     14 C21          5.0510    -0.4230     0.0110 ca         1 H8B      -0.075000
     15 C22          5.6650     0.6650    -0.6310 ca         1 H8B      -0.151000
     16 C23          4.8960     1.7640    -1.0410 ca         1 H8B      -0.069000
     17 C24          3.5110     1.7770    -0.8100 ca         1 H8B      -0.204000
     18 C25          2.8830     0.6860    -0.1640 ca         1 H8B       0.166100
     19 C26          3.6600    -0.4230     0.2460 ca         1 H8B      -0.119300
     20 C27          3.0300    -1.6200     0.9510 c3         1 H8B       0.215100
     21 N28          2.8570    -2.7450     0.0130 n7         1 H8B      -0.845400
     22 C29          2.2920    -3.9720     0.6050 c3         1 H8B       0.144100
     23 H1          -4.9180    -1.8740    -2.4130 hn         1 H8B       0.477500
     24 H2          -6.2990    -2.0510    -1.3990 hn         1 H8B       0.477500
     25 H3          -6.4930    -0.6210     0.6620 ha         1 H8B       0.120000
     26 H4          -5.1060     0.7580     2.2470 ha         1 H8B       0.117000
     27 H5          -2.9460     1.8690     2.7130 ha         1 H8B       0.112000
     28 H6          -0.6340     2.4390     2.0240 ha         1 H8B       0.121000
     29 H7          -1.2030     0.2890    -1.6780 ha         1 H8B       0.129000
     30 H8           0.6870     1.9040    -1.3910 h1         1 H8B       0.042700
     31 H9           0.9660     2.6900     0.1800 h1         1 H8B       0.042700
     32 H11          6.7380     0.6560    -0.8090 ha         1 H8B       0.114000
     33 H12          5.3740     2.6060    -1.5380 ha         1 H8B       0.110000
     34 H13          2.9440     2.6430    -1.1370 ha         1 H8B       0.116000
     35 H14          3.6840    -1.9190     1.7820 h1         1 H8B       0.035700
     36 H15          2.0650    -1.3380     1.3940 h1         1 H8B       0.035700
     37 H16          3.7790    -2.9710    -0.3780 hn         1 H8B       0.404000
     38 H18          2.9400    -4.3550     1.4050 h1         1 H8B       0.027367
     39 H19          1.2970    -3.7780     1.0300 h1         1 H8B       0.027367
     40 H20          2.1890    -4.7560    -0.1570 h1         1 H8B       0.027367
     41 H10          5.6570    -1.2690     0.3270 ha         1 H8B       0.109000
@<TRIPOS>BOND
     1     1     2 ar  
     2     1    11 ar  
     3     2     3 1   
     4     2     4 ar  
     5     3    23 1   
     6     3    24 1   
     7     4     5 ar  
     8     4    25 1   
     9     5     6 ar  
    10     5    26 1   
    11     6     7 ar  
    12     6    11 ar  
    13     7     8 ar  
    14     7    27 1   
    15     8     9 ar  
    16     8    28 1   
    17     9    10 ar  
    18     9    12 1   
    19    10    11 ar  
    20    10    29 1   
    21    12    13 1   
    22    12    30 1   
    23    12    31 1   
    24    13    18 1   
    25    14    15 ar  
    26    14    19 ar  
    27    14    41 1   
    28    15    16 ar  
    29    15    32 1   
    30    16    17 ar  
    31    16    33 1   
    32    17    18 ar  
    33    17    34 1   
    34    18    19 ar  
    35    19    20 1   
    36    20    21 1   
    37    20    35 1   
    38    20    36 1   
    39    21    22 1   
    40    21    37 1   
    41    22    38 1   
    42    22    39 1   
    43    22    40 1   
@<TRIPOS>SUBSTRUCTURE
     1 H8B         1 TEMP              0 ****  ****    0 ROOT
