@<TRIPOS>MOLECULE
H8C
   48    52     1     0     0
SMALL
bcc


@<TRIPOS>ATOM
      1 CAG         -4.6130     8.1520    -7.8650 c3         1 H8C      -0.138400
      2 CAE         -4.0450     8.5570    -6.5610 cc         1 H8C       0.312000
      3 OAD         -4.8370     9.2000    -5.7000 os         1 H8C      -0.118100
      4 NAC         -4.1430     9.4940    -4.5600 nc         1 H8C      -0.366300
      5 CAB         -2.9390     9.0350    -4.7340 cd         1 H8C       0.357600
      6 CAF         -1.9000     9.1550    -3.6790 c3         1 H8C      -0.134400
      7 CAA         -2.8110     8.4150    -6.0130 cd         1 H8C      -0.312600
      8 CAH         -1.6320     7.7550    -6.5790 ca         1 H8C      -0.015000
      9 CAM         -1.6280     6.3980    -6.8210 ca         1 H8C      -0.088000
     10 CAL         -0.5250     5.6810    -7.3570 ca         1 H8C      -0.148000
     11 CAK          0.6090     6.3870    -7.6450 ca         1 H8C       0.042800
     12 CAJ          0.6140     7.7720    -7.4090 ca         1 H8C      -0.089000
     13 CAI         -0.4530     8.4970    -6.8960 ca         1 H8C       0.002000
     14 CAN         -0.2260     9.8890    -6.7790 ca         1 H8C      -0.082000
     15 CAO          0.9870    10.4390    -7.1460 ca         1 H8C      -0.146000
     16 CAP          2.0510     9.6620    -7.6550 ca         1 H8C      -0.037000
     17 CAQ          1.8380     8.3150    -7.7840 ca         1 H8C      -0.137000
     18 CAS          2.6590     7.1830    -8.2810 c          1 H8C       0.319800
     19 OAU          3.7910     7.1970    -8.7130 o          1 H8C      -0.312000
     20 NAR          1.8600     6.0530    -8.1560 n          1 H8C      -0.177300
     21 CAT          2.2850     4.7240    -8.5680 c3         1 H8C       0.112300
     22 CAV          1.6420     4.3330    -9.8920 c3         1 H8C      -0.105100
     23 CAW          2.0800     3.7410    -7.4290 ca         1 H8C      -0.102300
     24 CAX          1.3830     2.5490    -7.5870 ca         1 H8C      -0.114500
     25 CAY          1.2160     1.6790    -6.5150 ca         1 H8C      -0.130000
     26 CAZ          1.7440     1.9900    -5.2720 ca         1 H8C      -0.121000
     27 CBA          2.4490     3.1770    -5.1070 ca         1 H8C      -0.130000
     28 CBB          2.6140     4.0420    -6.1760 ca         1 H8C      -0.114500
     29 H1          -5.0670     8.9990    -8.3800 hc         1 H8C       0.064367
     30 H2          -3.8280     7.7450    -8.4980 hc         1 H8C       0.064367
     31 H3          -5.3800     7.3860    -7.7420 hc         1 H8C       0.064367
     32 H4          -2.3210     9.5530    -2.7580 hc         1 H8C       0.058367
     33 H5          -1.4580     8.1810    -3.4680 hc         1 H8C       0.058367
     34 H6          -1.0910     9.8140    -3.9970 hc         1 H8C       0.058367
     35 H7          -2.5190     5.8320    -6.5770 ha         1 H8C       0.134000
     36 H8          -0.6120     4.6140    -7.5110 ha         1 H8C       0.149000
     37 H9          -1.0080    10.5400    -6.4090 ha         1 H8C       0.142000
     38 H10          1.1260    11.5070    -7.0440 ha         1 H8C       0.137000
     39 H11          2.9860    10.1310    -7.9340 ha         1 H8C       0.151000
     40 H12          3.3610     4.8090    -8.7360 h1         1 H8C       0.088700
     41 H13          2.0450     3.3870   -10.2520 hc         1 H8C       0.046700
     42 H14          0.5590     4.2350    -9.8150 hc         1 H8C       0.046700
     43 H15          1.8620     5.0920   -10.6420 hc         1 H8C       0.046700
     44 H16          0.9560     2.2840    -8.5450 ha         1 H8C       0.134500
     45 H17          0.6660     0.7570    -6.6570 ha         1 H8C       0.132000
     46 H18          1.6100     1.3140    -4.4380 ha         1 H8C       0.132000
     47 H19          2.8700     3.4290    -4.1420 ha         1 H8C       0.132000
     48 H20          3.1650     4.9640    -6.0320 ha         1 H8C       0.134500
@<TRIPOS>BOND
     1     1     2 1   
     2     1    29 1   
     3     1    30 1   
     4     1    31 1   
     5     2     3 1   
     6     2     7 2   
     7     3     4 1   
     8     4     5 2   
     9     5     6 1   
    10     5     7 1   
    11     6    32 1   
    12     6    33 1   
    13     6    34 1   
    14     7     8 1   
    15     8     9 ar  
    16     8    13 ar  
    17     9    10 ar  
    18     9    35 1   
    19    10    11 ar  
    20    10    36 1   
    21    11    12 ar  
    22    11    20 1   
    23    12    13 ar  
    24    12    17 ar  
    25    13    14 ar  
    26    14    15 ar  
    27    14    37 1   
    28    15    16 ar  
    29    15    38 1   
    30    16    17 ar  
    31    16    39 1   
    32    17    18 1   
    33    18    19 2   
    34    18    20 1   
    35    20    21 1   
    36    21    22 1   
    37    21    23 1   
    38    21    40 1   
    39    22    41 1   
    40    22    42 1   
    41    22    43 1   
    42    23    24 ar  
    43    23    28 ar  
    44    24    25 ar  
    45    24    44 1   
    46    25    26 ar  
    47    25    45 1   
    48    26    27 ar  
    49    26    46 1   
    50    27    28 ar  
    51    27    47 1   
    52    28    48 1   
@<TRIPOS>SUBSTRUCTURE
     1 H8C         1 TEMP              0 ****  ****    0 ROOT
