@<TRIPOS>MOLECULE
H8C
   48    52     1     0     0
SMALL
No Charge or Current Charge


@<TRIPOS>ATOM
      1 CAG         -4.7500     7.6370    -7.6160 c3         1 H8C      -0.138400
      2 CAE         -4.1130     8.3370    -6.4480 cc         1 H8C       0.202300
      3 OAD         -4.9220     9.0200    -5.5750 os         1 H8C      -0.073700
      4 NAC         -4.1070     9.5690    -4.5300 nc         1 H8C      -0.366300
      5 CAB         -2.8760     9.2200    -4.8570 cd         1 H8C       0.292300
      6 CAF         -1.7580     9.5090    -3.8900 c3         1 H8C      -0.134400
      7 CAA         -2.8050     8.5090    -6.0840 cd         1 H8C      -0.182000
      8 CAH         -1.6230     7.8470    -6.6760 ca         1 H8C      -0.015000
      9 CAM         -1.7200     6.4920    -7.1150 ca         1 H8C      -0.070000
     10 CAL         -0.6060     5.7930    -7.6410 ca         1 H8C      -0.130000
     11 CAK          0.6290     6.4510    -7.6640 ca         1 H8C       0.042800
     12 CAJ          0.6820     7.7890    -7.3440 ca         1 H8C      -0.089000
     13 CAI         -0.3840     8.5260    -6.8460 ca         1 H8C       0.002000
     14 CAN         -0.1470     9.9080    -6.6400 ca         1 H8C      -0.064000
     15 CAO          1.1330    10.4670    -6.9130 ca         1 H8C      -0.128000
     16 CAP          2.1880     9.6710    -7.4240 ca         1 H8C      -0.019000
     17 CAQ          1.9230     8.3140    -7.6470 ca         1 H8C      -0.137000
     18 CAS          2.7530     7.2160    -8.2310 c          1 H8C       0.319800
     19 OAU          3.9180     7.2670    -8.5930 o          1 H8C      -0.312000
     20 NAR          1.8850     6.1050    -8.2540 n          1 H8C      -0.206600
     21 CAT          2.3230     4.7320    -8.5770 c3         1 H8C       0.141600
     22 CAV          1.8140     4.3080    -9.9730 c3         1 H8C      -0.105100
     23 CAW          2.0220     3.7430    -7.4390 ca         1 H8C      -0.102300
     24 CAX          1.1420     2.6440    -7.5840 ca         1 H8C      -0.096500
     25 CAY          0.9000     1.7770    -6.5040 ca         1 H8C      -0.112000
     26 CAZ          1.5310     1.9940    -5.2690 ca         1 H8C      -0.103000
     27 CBA          2.4070     3.0800    -5.1140 ca         1 H8C      -0.112000
     28 CBB          2.6500     3.9470    -6.1920 ca         1 H8C      -0.096500
     29 H1          -5.6620     8.1580    -7.9310 hc         1 H8C       0.064367
     30 H2          -4.0700     7.6060    -8.4750 hc         1 H8C       0.064367
     31 H3          -5.0220     6.6090    -7.3520 hc         1 H8C       0.064367
     32 H4          -2.0820     9.3450    -2.8550 hc         1 H8C       0.058367
     33 H5          -0.8950     8.8570    -4.0650 hc         1 H8C       0.058367
     34 H6          -1.4240    10.5500    -3.9710 hc         1 H8C       0.058367
     35 H7          -2.6630     5.9590    -7.0240 ha         1 H8C       0.116000
     36 H8          -0.7050     4.7680    -7.9870 ha         1 H8C       0.131000
     37 H9          -0.9470    10.5630    -6.3090 ha         1 H8C       0.124000
     38 H10          1.2970    11.5290    -6.7510 ha         1 H8C       0.119000
     39 H11          3.1590    10.1020    -7.6590 ha         1 H8C       0.133000
     40 H12          3.4180     4.7590    -8.6590 h1         1 H8C       0.088700
     41 H13          2.1920     3.3140   -10.2380 hc         1 H8C       0.046700
     42 H14          0.7190     4.2910   -10.0070 hc         1 H8C       0.046700
     43 H15          2.1640     5.0160   -10.7340 hc         1 H8C       0.046700
     44 H16          0.6340     2.4500    -8.5240 ha         1 H8C       0.116500
     45 H17          0.2210     0.9370    -6.6250 ha         1 H8C       0.114000
     46 H18          1.3420     1.3220    -4.4340 ha         1 H8C       0.114000
     47 H19          2.8960     3.2510    -4.1570 ha         1 H8C       0.114000
     48 H20          3.3280     4.7870    -6.0570 ha         1 H8C       0.116500
@<TRIPOS>BOND
     1     1     2 1   
     2     1    29 1   
     3     1    30 1   
     4     1    31 1   
     5     2     3 1   
     6     2     7 2   
     7     3     4 1   
     8     4     5 2   
     9     5     6 1   
    10     5     7 1   
    11     6    32 1   
    12     6    33 1   
    13     6    34 1   
    14     7     8 1   
    15     8     9 ar  
    16     8    13 ar  
    17     9    10 ar  
    18     9    35 1   
    19    10    11 ar  
    20    10    36 1   
    21    11    12 ar  
    22    11    20 1   
    23    12    13 ar  
    24    12    17 ar  
    25    13    14 ar  
    26    14    15 ar  
    27    14    37 1   
    28    15    16 ar  
    29    15    38 1   
    30    16    17 ar  
    31    16    39 1   
    32    17    18 1   
    33    18    19 2   
    34    18    20 1   
    35    20    21 1   
    36    21    22 1   
    37    21    23 1   
    38    21    40 1   
    39    22    41 1   
    40    22    42 1   
    41    22    43 1   
    42    23    24 ar  
    43    23    28 ar  
    44    24    25 ar  
    45    24    44 1   
    46    25    26 ar  
    47    25    45 1   
    48    26    27 ar  
    49    26    46 1   
    50    27    28 ar  
    51    27    47 1   
    52    28    48 1   
@<TRIPOS>SUBSTRUCTURE
     1 H8C         1 TEMP              0 ****  ****    0 ROOT
