@<TRIPOS>MOLECULE
H8D
   50    53     1     0     0
SMALL
No Charge or Current Charge


@<TRIPOS>ATOM
      1 C4           4.9820     2.0270    -1.7420 ca         1 H8D      -0.121000
      2 C14         -1.1230     0.0250     0.2960 c6         1 H8D      -0.108500
      3 C5           3.7420     2.5740    -2.1580 ca         1 H8D      -0.095000
      4 C6           2.5210     0.9010    -0.8380 ca         1 H8D      -0.001800
      5 C11          1.5500    -1.2870     0.2300 c6         1 H8D       0.221700
      6 C7           3.9830    -0.6700     0.3880 cc         1 H8D      -0.140400
      7 C8           5.3640    -0.8190     0.4790 cd         1 H8D      -0.151100
      8 C9           1.3210     0.1810    -0.2950 ce         1 H8D      -0.039400
      9 C10          0.0980     0.7570    -0.2520 c2         1 H8D      -0.209200
     10 C13         -0.9150    -1.5030     0.3190 c6         1 H8D       0.178800
     11 N1           5.9850     0.1870    -0.3210 na         1 H8D      -0.227700
     12 N2           0.3700    -1.8500     0.9800 n3         1 H8D      -0.722600
     13 C3           3.7640     0.4190    -0.4660 ca         1 H8D      -0.107800
     14 N3          -3.5760     0.2900     0.3890 ns         1 H8D      -0.493900
     15 C1           4.9490     0.9240    -0.8780 ca         1 H8D      -0.038200
     16 C15          2.8830    -1.4400     1.0620 c6         1 H8D       0.010800
     17 C16         -2.4530     0.3590    -0.4060 c          1 H8D       0.603100
     18 C19         -4.9390     0.6140    -0.0520 c3         1 H8D       0.113700
     19 C2           2.5130     2.0140    -1.7120 ca         1 H8D      -0.123000
     20 C20         -5.9770    -0.3030     0.6450 c3         1 H8D      -0.084400
     21 C21         -5.7660    -1.8090     0.3740 c3         1 H8D      -0.088100
     22 C22         -5.2470     2.1280     0.1280 c3         1 H8D       0.133600
     23 O1          -2.5080     0.7130    -1.5760 o          1 H8D      -0.609100
     24 O2          -5.1280     2.5320     1.5040 oh         1 H8D      -0.668000
     25 H1           5.9250     2.4480    -2.0840 ha         1 H8D       0.114000
     26 H2          -1.2590     0.2860     1.3540 hc         1 H8D       0.080700
     27 H3           3.7300     3.4280    -2.8310 ha         1 H8D       0.108000
     28 H4           1.6890    -1.8920    -0.6790 h1         1 H8D       0.039700
     29 H5           5.9420    -1.5420     1.0490 h4         1 H8D       0.212000
     30 H7          -0.0650     1.7770    -0.6020 ha         1 H8D       0.184000
     31 H9           1.3330    -3.5410     1.8780 h1         1 H8D       0.031700
     32 H10         -0.4250    -3.6680     1.7660 h1         1 H8D       0.031700
     33 H11          0.5670    -3.8680     0.3040 h1         1 H8D       0.031700
     34 H12         -1.7600    -1.9670     0.8510 h1         1 H8D       0.050700
     35 H13         -0.9310    -1.8900    -0.7110 h1         1 H8D       0.050700
     36 H14          6.9810     0.3370    -0.4520 hn         1 H8D       0.349000
     37 H16         -3.4360     0.0450     1.3610 hn         1 H8D       0.317500
     38 H17          2.7260    -1.0580     2.0790 hc         1 H8D       0.054200
     39 H18          3.1620    -2.4970     1.1550 hc         1 H8D       0.054200
     40 H19         -5.0040     0.4040    -1.1290 h1         1 H8D       0.079700
     41 H20          1.5750     2.4400    -2.0570 ha         1 H8D       0.111000
     42 H21         -5.9540    -0.1300     1.7270 hc         1 H8D       0.049700
     43 H22         -6.9820    -0.0250     0.3030 hc         1 H8D       0.049700
     44 H23         -5.7870    -2.0160    -0.7030 hc         1 H8D       0.035367
     45 H24         -4.8050    -2.1530     0.7750 hc         1 H8D       0.035367
     46 H25         -6.5610    -2.3960     0.8500 hc         1 H8D       0.035367
     47 H26         -4.5500     2.7040    -0.4950 h1         1 H8D       0.032200
     48 H27         -6.2610     2.3320    -0.2430 h1         1 H8D       0.032200
     49 H28         -5.3150     3.4970     1.5390 ho         1 H8D       0.445000
     50 C12          0.4710    -3.3060     1.2430 c3         1 H8D       0.153100
@<TRIPOS>BOND
     1     1     3 ar  
     2     1    15 ar  
     3     1    25 1   
     4     2     9 1   
     5     2    10 1   
     6     2    17 1   
     7     2    26 1   
     8     3    19 ar  
     9     3    27 1   
    10     4     8 1   
    11     4    13 ar  
    12     4    19 ar  
    13     5     8 1   
    14     5    12 1   
    15     5    16 1   
    16     5    28 1   
    17     6     7 2   
    18     6    13 1   
    19     6    16 1   
    20     7    11 1   
    21     7    29 1   
    22     8     9 2   
    23     9    30 1   
    24    10    12 1   
    25    10    34 1   
    26    10    35 1   
    27    11    15 1   
    28    11    36 1   
    29    12    50 1   
    30    13    15 ar  
    31    14    17 1   
    32    14    18 1   
    33    14    37 1   
    34    16    38 1   
    35    16    39 1   
    36    17    23 2   
    37    18    20 1   
    38    18    22 1   
    39    18    40 1   
    40    19    41 1   
    41    20    21 1   
    42    20    42 1   
    43    20    43 1   
    44    21    44 1   
    45    21    45 1   
    46    21    46 1   
    47    22    24 1   
    48    22    47 1   
    49    22    48 1   
    50    24    49 1   
    51    31    50 1   
    52    32    50 1   
    53    33    50 1   
@<TRIPOS>SUBSTRUCTURE
     1 H8D         1 TEMP              0 ****  ****    0 ROOT
