@<TRIPOS>MOLECULE
H8D
   50    53     1     0     0
SMALL
bcc


@<TRIPOS>ATOM
      1 C4           3.7900     2.9540    -0.4810 ca         1 H8D      -0.139000
      2 C14         -1.2980    -1.3210     0.2550 c6         1 H8D      -0.108500
      3 C5           2.4390     3.1970    -0.6880 ca         1 H8D      -0.113000
      4 C6           1.8080     0.9070    -0.2100 ca         1 H8D      -0.001800
      5 C11          1.6010    -1.6230    -0.2260 c6         1 H8D       0.221700
      6 C7           3.7680    -0.5510     0.3800 cc         1 H8D      -0.140400
      7 C8           5.1060    -0.2900     0.4570 cd         1 H8D      -0.101100
      8 C9           0.9290    -0.2630    -0.0560 ce         1 H8D      -0.039400
      9 C10         -0.3730    -0.1420     0.2060 c2         1 H8D      -0.159200
     10 C13         -0.6410    -2.4990    -0.4370 c6         1 H8D       0.178800
     11 N1           5.3340     1.0350     0.1530 na         1 H8D      -0.177400
     12 N2           0.6890    -2.7090     0.1070 n3         1 H8D      -0.722600
     13 C3           3.1620     0.6690     0.0030 ca         1 H8D      -0.107800
     14 N3          -3.3810    -0.1310     0.3820 ns         1 H8D      -0.560900
     15 C1           4.1490     1.6520    -0.1300 ca         1 H8D      -0.038200
     16 C15          2.8950    -1.7360     0.6190 c6         1 H8D       0.010800
     17 C16         -2.6210    -0.9250    -0.3900 c          1 H8D       0.670100
     18 C19         -4.5270     0.6160    -0.1040 c3         1 H8D       0.113700
     19 C2           1.4540     2.2010    -0.5640 ca         1 H8D      -0.141000
     20 C20         -5.4720     0.9240     1.0540 c3         1 H8D      -0.084400
     21 C21         -6.0450    -0.3260     1.7080 c3         1 H8D      -0.088100
     22 C22         -4.0750     1.8650    -0.8510 c3         1 H8D       0.110400
     23 O1          -2.9420    -1.2740    -1.5170 o          1 H8D      -0.609100
     24 O2          -3.3010     2.6620     0.0150 oh         1 H8D      -0.605800
     25 H1           4.5210     3.7440    -0.5950 ha         1 H8D       0.132000
     26 H2          -1.4980    -1.5850     1.3020 hc         1 H8D       0.080700
     27 H3           2.1290     4.1950    -0.9700 ha         1 H8D       0.126000
     28 H4           1.9060    -1.6880    -1.2890 h1         1 H8D       0.039700
     29 H5           5.9330    -0.9360     0.7070 h4         1 H8D       0.162000
     30 H7          -0.8000     0.8440     0.3680 ha         1 H8D       0.134000
     31 H9           2.1300    -4.2480     0.1900 h1         1 H8D       0.031700
     32 H10          0.4790    -4.7750    -0.0590 h1         1 H8D       0.031700
     33 H11          1.3810    -4.0560    -1.4010 h1         1 H8D       0.031700
     34 H12         -1.2300    -3.4020    -0.2670 h1         1 H8D       0.050700
     35 H13         -0.6180    -2.3310    -1.5250 h1         1 H8D       0.050700
     36 H14          6.2430     1.4670     0.1400 hn         1 H8D       0.298700
     37 H16         -3.0020     0.1530     1.2730 hn         1 H8D       0.317500
     38 H17          2.6050    -1.8020     1.6730 hc         1 H8D       0.054200
     39 H18          3.4170    -2.6610     0.3780 hc         1 H8D       0.054200
     40 H19         -5.0590    -0.0130    -0.8210 h1         1 H8D       0.079700
     41 H20          0.4230     2.4580    -0.7730 ha         1 H8D       0.129000
     42 H21         -4.9610     1.5380     1.8010 hc         1 H8D       0.049700
     43 H22         -6.2870     1.5380     0.6640 hc         1 H8D       0.049700
     44 H23         -6.5610    -0.9500     0.9760 hc         1 H8D       0.035367
     45 H24         -5.2680    -0.9340     2.1710 hc         1 H8D       0.035367
     46 H25         -6.7620    -0.0630     2.4850 hc         1 H8D       0.035367
     47 H26         -3.5020     1.5610    -1.7350 h1         1 H8D       0.032200
     48 H27         -4.9650     2.3950    -1.2140 h1         1 H8D       0.032200
     49 H28         -2.9030     3.3690    -0.5000 ho         1 H8D       0.406000
     50 C12          1.1990    -3.9980    -0.3170 c3         1 H8D       0.153100
@<TRIPOS>BOND
     1     1     3 ar  
     2     1    15 ar  
     3     1    25 1   
     4     2     9 1   
     5     2    10 1   
     6     2    17 1   
     7     2    26 1   
     8     3    19 ar  
     9     3    27 1   
    10     4     8 1   
    11     4    13 ar  
    12     4    19 ar  
    13     5     8 1   
    14     5    12 1   
    15     5    16 1   
    16     5    28 1   
    17     6     7 2   
    18     6    13 1   
    19     6    16 1   
    20     7    11 1   
    21     7    29 1   
    22     8     9 2   
    23     9    30 1   
    24    10    12 1   
    25    10    34 1   
    26    10    35 1   
    27    11    15 1   
    28    11    36 1   
    29    12    50 1   
    30    13    15 ar  
    31    14    17 1   
    32    14    18 1   
    33    14    37 1   
    34    16    38 1   
    35    16    39 1   
    36    17    23 2   
    37    18    20 1   
    38    18    22 1   
    39    18    40 1   
    40    19    41 1   
    41    20    21 1   
    42    20    42 1   
    43    20    43 1   
    44    21    44 1   
    45    21    45 1   
    46    21    46 1   
    47    22    24 1   
    48    22    47 1   
    49    22    48 1   
    50    24    49 1   
    51    31    50 1   
    52    32    50 1   
    53    33    50 1   
@<TRIPOS>SUBSTRUCTURE
     1 H8D         1 TEMP              0 ****  ****    0 ROOT
