@<TRIPOS>MOLECULE
H8F
   42    42     1     0     0
SMALL
bcc


@<TRIPOS>ATOM
      1 C15        -32.0150     6.4340   -12.8930 c3         1 H8F       0.205100
      2 C14        -29.2560     2.1180    -8.8120 c3         1 H8F      -0.082433
      3 C12        -31.6750     1.8930    -8.2050 c3         1 H8F      -0.082433
      4 C10        -30.0160     7.7180   -10.5300 c3         1 H8F      -0.085767
      5 C09        -32.5000     7.6840    -9.9820 c3         1 H8F      -0.085767
      6 C02        -31.3870     2.9330   -11.6060 ca         1 H8F      -0.220000
      7 C03        -31.0210     3.1050   -10.2830 ca         1 H8F      -0.024300
      8 C04        -30.9800     4.4080    -9.7890 ca         1 H8F      -0.169000
      9 C06        -31.6470     5.3480   -11.9050 ca         1 H8F      -0.100300
     10 C07        -31.1680     6.9210    -9.8960 c3         1 H8F       0.002300
     11 C01        -31.6950     4.0370   -12.3930 ca         1 H8F       0.131100
     12 C05        -31.2790     5.5340   -10.5550 ca         1 H8F      -0.005300
     13 C08        -30.8380     6.8350    -8.3990 c3         1 H8F      -0.085767
     14 C11        -30.6750     1.9340    -9.3680 c3         1 H8F      -0.000700
     15 C13        -30.7330     0.5910   -10.0950 c3         1 H8F      -0.082433
     16 N01        -33.4620     6.5260   -13.0810 n8         1 H8F      -0.882800
     17 O01        -32.0590     3.8730   -13.6890 oh         1 H8F      -0.513100
     18 H1         -31.4720     6.2510   -13.8290 h1         1 H8F       0.036700
     19 H2         -31.6730     7.4040   -12.5490 h1         1 H8F       0.036700
     20 H3         -28.9940     1.2800    -8.1630 hc         1 H8F       0.035144
     21 H4         -28.5210     2.1620    -9.6170 hc         1 H8F       0.035144
     22 H5         -29.1630     3.0310    -8.2240 hc         1 H8F       0.035144
     23 H6         -31.4520     1.0560    -7.5390 hc         1 H8F       0.035144
     24 H7         -31.6450     2.8060    -7.6090 hc         1 H8F       0.035144
     25 H8         -32.6960     1.7650    -8.5710 hc         1 H8F       0.035144
     26 H9         -29.9410     8.7020   -10.0610 hc         1 H8F       0.036367
     27 H10        -29.0670     7.2030   -10.3720 hc         1 H8F       0.036367
     28 H11        -30.1240     7.8780   -11.6010 hc         1 H8F       0.036367
     29 H12        -32.3970     8.6610    -9.5060 hc         1 H8F       0.036367
     30 H13        -32.8580     7.8450   -10.9950 hc         1 H8F       0.036367
     31 H14        -33.2810     7.1380    -9.4480 hc         1 H8F       0.036367
     32 H15        -31.4420     1.9440   -12.0490 ha         1 H8F       0.130000
     33 H16        -30.7010     4.5400    -8.7550 ha         1 H8F       0.133000
     34 H17        -30.7950     7.8460    -7.9920 hc         1 H8F       0.036367
     35 H18        -31.5970     6.2900    -7.8360 hc         1 H8F       0.036367
     36 H19        -29.8690     6.3720    -8.2060 hc         1 H8F       0.036367
     37 H20        -30.4700    -0.2110    -9.4040 hc         1 H8F       0.035144
     38 H21        -31.7330     0.3740   -10.4780 hc         1 H8F       0.035144
     39 H22        -30.0330     0.5460   -10.9320 hc         1 H8F       0.035144
     40 H23        -33.6540     7.2680   -13.7430 hn         1 H8F       0.338300
     41 H24        -33.8000     5.6790   -13.5190 hn         1 H8F       0.338300
     42 H26        -32.0410     2.9390   -13.9240 ho         1 H8F       0.424000
@<TRIPOS>BOND
     1     1     9 1   
     2     1    16 1   
     3     1    18 1   
     4     1    19 1   
     5     2    14 1   
     6     2    20 1   
     7     2    21 1   
     8     2    22 1   
     9     3    14 1   
    10     3    23 1   
    11     3    24 1   
    12     3    25 1   
    13     4    10 1   
    14     4    26 1   
    15     4    27 1   
    16     4    28 1   
    17     5    10 1   
    18     5    29 1   
    19     5    30 1   
    20     5    31 1   
    21     6     7 ar  
    22     6    11 ar  
    23     6    32 1   
    24     7     8 ar  
    25     7    14 1   
    26     8    12 ar  
    27     8    33 1   
    28     9    11 ar  
    29     9    12 ar  
    30    10    12 1   
    31    10    13 1   
    32    11    17 1   
    33    13    34 1   
    34    13    35 1   
    35    13    36 1   
    36    14    15 1   
    37    15    37 1   
    38    15    38 1   
    39    15    39 1   
    40    16    40 1   
    41    16    41 1   
    42    17    42 1   
@<TRIPOS>SUBSTRUCTURE
     1 H8F         1 TEMP              0 ****  ****    0 ROOT
