@<TRIPOS>MOLECULE
H8F
   42    42     1     0     0
SMALL
No Charge or Current Charge


@<TRIPOS>ATOM
      1 C15        -32.0380     6.4660   -12.9220 c3         1 H8F       0.205100
      2 C14        -29.1970     2.0510    -8.8760 c3         1 H8F      -0.082433
      3 C12        -31.6190     1.8760    -8.1440 c3         1 H8F      -0.082433
      4 C10        -29.9840     7.7770   -10.4600 c3         1 H8F      -0.085767
      5 C09        -32.5140     7.7840    -9.9760 c3         1 H8F      -0.085767
      6 C02        -31.4120     2.9220   -11.6340 ca         1 H8F      -0.202000
      7 C03        -31.0280     3.0900   -10.2930 ca         1 H8F      -0.024300
      8 C04        -30.9740     4.4040    -9.7860 ca         1 H8F      -0.151000
      9 C06        -31.6810     5.3500   -11.9230 ca         1 H8F      -0.100300
     10 C07        -31.1800     6.9830    -9.8660 c3         1 H8F       0.002300
     11 C01        -31.7290     4.0250   -12.4300 ca         1 H8F       0.131100
     12 C05        -31.2920     5.5640   -10.5520 ca         1 H8F      -0.005300
     13 C08        -30.8820     6.9130    -8.3330 c3         1 H8F      -0.085767
     14 C11        -30.6620     1.8930    -9.3680 c3         1 H8F      -0.000700
     15 C13        -30.7760     0.5130   -10.0760 c3         1 H8F      -0.082433
     16 N01        -33.4880     6.5260   -13.1960 n8         1 H8F      -0.993200
     17 O01        -32.0880     3.7800   -13.7280 oh         1 H8F      -0.552100
     18 H1         -31.5210     6.2700   -13.8720 h1         1 H8F       0.036700
     19 H2         -31.7030     7.4540   -12.6060 h1         1 H8F       0.036700
     20 H3         -28.8980     1.1990    -8.2540 hc         1 H8F       0.035144
     21 H4         -28.5080     2.1060    -9.7280 hc         1 H8F       0.035144
     22 H5         -29.0640     2.9580    -8.2760 hc         1 H8F       0.035144
     23 H6         -31.4100     1.0170    -7.4950 hc         1 H8F       0.035144
     24 H7         -31.5170     2.7800    -7.5330 hc         1 H8F       0.035144
     25 H8         -32.6630     1.8060    -8.4720 hc         1 H8F       0.035144
     26 H9         -29.8930     8.7540    -9.9700 hc         1 H8F       0.036367
     27 H10        -29.0490     7.2310   -10.2870 hc         1 H8F       0.036367
     28 H11        -30.0600     7.9550   -11.5340 hc         1 H8F       0.036367
     29 H12        -32.5000     8.6650    -9.3230 hc         1 H8F       0.036367
     30 H13        -32.7190     8.1640   -10.9770 hc         1 H8F       0.036367
     31 H14        -33.3620     7.1590    -9.6700 hc         1 H8F       0.036367
     32 H15        -31.4690     1.9350   -12.0790 ha         1 H8F       0.112000
     33 H16        -30.6680     4.4990    -8.7540 ha         1 H8F       0.115000
     34 H17        -30.8500     7.9150    -7.8870 hc         1 H8F       0.036367
     35 H18        -31.6590     6.3470    -7.8040 hc         1 H8F       0.036367
     36 H19        -29.9080     6.4510    -8.1290 hc         1 H8F       0.036367
     37 H20        -30.5130    -0.3020    -9.3910 hc         1 H8F       0.035144
     38 H21        -31.8000     0.3300   -10.4250 hc         1 H8F       0.035144
     39 H22        -30.0970     0.4510   -10.9360 hc         1 H8F       0.035144
     40 H23        -33.6510     7.1740   -13.9740 hn         1 H8F       0.393500
     41 H24        -33.7580     5.6120   -13.5770 hn         1 H8F       0.393500
     42 H26        -32.0420     2.8130   -13.8850 ho         1 H8F       0.463000
@<TRIPOS>BOND
     1     1     9 1   
     2     1    16 1   
     3     1    18 1   
     4     1    19 1   
     5     2    14 1   
     6     2    20 1   
     7     2    21 1   
     8     2    22 1   
     9     3    14 1   
    10     3    23 1   
    11     3    24 1   
    12     3    25 1   
    13     4    10 1   
    14     4    26 1   
    15     4    27 1   
    16     4    28 1   
    17     5    10 1   
    18     5    29 1   
    19     5    30 1   
    20     5    31 1   
    21     6     7 ar  
    22     6    11 ar  
    23     6    32 1   
    24     7     8 ar  
    25     7    14 1   
    26     8    12 ar  
    27     8    33 1   
    28     9    11 ar  
    29     9    12 ar  
    30    10    12 1   
    31    10    13 1   
    32    11    17 1   
    33    13    34 1   
    34    13    35 1   
    35    13    36 1   
    36    14    15 1   
    37    15    37 1   
    38    15    38 1   
    39    15    39 1   
    40    16    40 1   
    41    16    41 1   
    42    17    42 1   
@<TRIPOS>SUBSTRUCTURE
     1 H8F         1 TEMP              0 ****  ****    0 ROOT
