@<TRIPOS>MOLECULE
H8G
   51    54     1     0     0
SMALL
No Charge or Current Charge


@<TRIPOS>ATOM
      1 CAA        -16.6370   -18.3350     8.7960 c3         1 H8G      -0.115600
      2 CAB        -16.7280   -19.2920    13.1730 c3         1 H8G      -0.115600
      3 CAC        -20.8050   -19.1160     5.7560 c3         1 H8G       0.154100
      4 CAE        -21.9330   -17.4210     9.5960 c2         1 H8G      -0.213200
      5 CAF        -24.0990   -13.4740     9.5000 ca         1 H8G      -0.094000
      6 CAG        -23.5720   -14.7940     9.5980 ca         1 H8G      -0.121000
      7 CAH        -23.8330   -12.6660     8.3640 ca         1 H8G      -0.121000
      8 CAI        -21.7910   -13.6730     5.4720 cc         1 H8G      -0.146100
      9 CAJ        -17.1690   -17.9470    10.1870 c3         1 H8G       0.109000
     10 CAK        -16.9150   -19.9010    11.7710 c3         1 H8G       0.109000
     11 CAL        -21.0680   -16.0830     6.1600 c6         1 H8G       0.011800
     12 CAM        -21.4170   -19.4010     8.1240 c6         1 H8G       0.134800
     13 CAP        -19.1680   -19.3940    10.7870 c          1 H8G       0.643100
     14 CAQ        -22.1470   -16.6740     8.4870 ce         1 H8G      -0.040400
     15 CAR        -21.7780   -14.7640     6.3340 cd         1 H8G      -0.141400
     16 CAS        -22.7690   -15.3120     8.5540 ca         1 H8G      -0.006800
     17 CAT        -23.0350   -13.2180     7.3550 ca         1 H8G      -0.035200
     18 CAU        -22.5470   -14.4730     7.4790 ca         1 H8G      -0.105800
     19 CAV        -21.2880   -18.7890     9.5450 c6         1 H8G       0.150900
     20 CAW        -21.7460   -17.1940     7.0540 c6         1 H8G       0.217700
     21 NAN        -19.8800   -18.6210     9.9080 ns         1 H8G      -0.487900
     22 NAO        -22.5930   -12.7070     6.1410 na         1 H8G      -0.238700
     23 NAX        -20.9270   -18.4560     7.0780 n3         1 H8G      -0.734600
     24 NAY        -17.7950   -19.0880    10.9010 n          1 H8G      -0.434800
     25 OAD        -19.6950   -20.2960    11.4210 o          1 H8G      -0.660100
     26 H1         -16.1700   -17.4690     8.3130 hc         1 H8G       0.041700
     27 H2         -15.8870   -19.1300     8.8770 hc         1 H8G       0.041700
     28 H3         -17.4510   -18.6900     8.1540 hc         1 H8G       0.041700
     29 H4         -16.0720   -19.9280    13.7790 hc         1 H8G       0.041700
     30 H5         -16.2770   -18.2950    13.1090 hc         1 H8G       0.041700
     31 H6         -17.6930   -19.2050    13.6850 hc         1 H8G       0.041700
     32 H7         -20.2160   -20.0390     5.8380 h1         1 H8G       0.032367
     33 H8         -21.7950   -19.3770     5.3560 h1         1 H8G       0.032367
     34 H9         -20.2970   -18.4690     5.0300 h1         1 H8G       0.032367
     35 H12        -24.7170   -13.0820    10.3050 ha         1 H8G       0.111000
     36 H13        -23.8000   -15.3980    10.4720 ha         1 H8G       0.114000
     37 H14        -24.2330   -11.6580     8.2820 ha         1 H8G       0.115000
     38 H15        -21.3230   -13.5090     4.5050 h4         1 H8G       0.213000
     39 H16        -16.3280   -17.5740    10.7860 h1         1 H8G       0.051200
     40 H17        -17.8780   -17.1130    10.0970 h1         1 H8G       0.051200
     41 H18        -17.3180   -20.9170    11.8680 h1         1 H8G       0.051200
     42 H19        -15.9310   -19.9930    11.2920 h1         1 H8G       0.051200
     43 H20        -21.0810   -16.3790     5.1030 hc         1 H8G       0.052700
     44 H21        -20.0140   -15.9760     6.4480 hc         1 H8G       0.052700
     45 H22        -22.4700   -19.6600     7.9400 h1         1 H8G       0.049200
     46 H23        -20.8460   -20.3410     8.0980 h1         1 H8G       0.049200
     47 H25        -21.7790   -19.4570    10.2680 h1         1 H8G       0.091700
     48 H26        -22.7050   -17.4290     6.5670 h1         1 H8G       0.037700
     49 H27        -19.3530   -17.9400     9.3820 hn         1 H8G       0.306500
     50 H28        -22.8120   -11.7790     5.7890 hn         1 H8G       0.350000
     51 H10        -22.2000   -17.0600    10.5880 ha         1 H8G       0.186000
@<TRIPOS>BOND
     1     1     9 1   
     2     1    26 1   
     3     1    27 1   
     4     1    28 1   
     5     2    10 1   
     6     2    29 1   
     7     2    30 1   
     8     2    31 1   
     9     3    23 1   
    10     3    32 1   
    11     3    33 1   
    12     3    34 1   
    13     4    14 2   
    14     4    19 1   
    15     4    51 1   
    16     5     6 ar  
    17     5     7 ar  
    18     5    35 1   
    19     6    16 ar  
    20     6    36 1   
    21     7    17 ar  
    22     7    37 1   
    23     8    15 2   
    24     8    22 1   
    25     8    38 1   
    26     9    24 1   
    27     9    39 1   
    28     9    40 1   
    29    10    24 1   
    30    10    41 1   
    31    10    42 1   
    32    11    15 1   
    33    11    20 1   
    34    11    43 1   
    35    11    44 1   
    36    12    19 1   
    37    12    23 1   
    38    12    45 1   
    39    12    46 1   
    40    13    21 1   
    41    13    24 1   
    42    13    25 2   
    43    14    16 1   
    44    14    20 1   
    45    15    18 1   
    46    16    18 ar  
    47    17    18 ar  
    48    17    22 1   
    49    19    21 1   
    50    19    47 1   
    51    20    23 1   
    52    20    48 1   
    53    21    49 1   
    54    22    50 1   
@<TRIPOS>SUBSTRUCTURE
     1 H8G         1 TEMP              0 ****  ****    0 ROOT
