@<TRIPOS>MOLECULE
H8G
   51    54     1     0     0
SMALL
abcg2


@<TRIPOS>ATOM
      1 CAA        -16.5850   -18.0170     8.9490 c3         1 H8G      -0.115600
      2 CAB        -16.6980   -20.0880    12.9300 c3         1 H8G      -0.115600
      3 CAC        -20.6520   -19.0310     6.1430 c3         1 H8G       0.154100
      4 CAE        -21.8160   -17.0810     9.7070 c2         1 H8G      -0.213200
      5 CAF        -24.3420   -13.4370     9.1600 ca         1 H8G      -0.094000
      6 CAG        -23.6990   -14.6650     9.4080 ca         1 H8G      -0.121000
      7 CAH        -24.1730   -12.7190     7.9780 ca         1 H8G      -0.121000
      8 CAI        -22.0220   -13.8250     5.2550 cc         1 H8G      -0.146100
      9 CAJ        -16.9920   -17.9710    10.4210 c3         1 H8G       0.109000
     10 CAK        -16.9280   -20.2500    11.4310 c3         1 H8G       0.109000
     11 CAL        -21.0360   -16.0790     6.2440 c6         1 H8G       0.011800
     12 CAM        -21.2810   -19.1380     8.4540 c6         1 H8G       0.134800
     13 CAP        -19.0690   -19.3080    10.7560 c          1 H8G       0.643100
     14 CAQ        -22.1020   -16.4900     8.5430 ce         1 H8G      -0.040400
     15 CAR        -21.8530   -14.8300     6.1710 cd         1 H8G      -0.141400
     16 CAS        -22.8380   -15.2150     8.4610 ca         1 H8G      -0.006800
     17 CAT        -23.3180   -13.2690     7.0220 ca         1 H8G      -0.035200
     18 CAU        -22.6690   -14.4920     7.2800 ca         1 H8G      -0.105800
     19 CAV        -21.1560   -18.4210     9.7910 c6         1 H8G       0.150900
     20 CAW        -21.7030   -17.1090     7.1980 c6         1 H8G       0.217700
     21 NAN        -19.7640   -18.2540    10.2100 ns         1 H8G      -0.487900
     22 NAO        -22.9040   -12.8790     5.7690 na         1 H8G      -0.238700
     23 NAX        -20.8260   -18.2690     7.3740 n3         1 H8G      -0.734600
     24 NAY        -17.7170   -19.1630    10.8560 n          1 H8G      -0.434800
     25 OAD        -19.6560   -20.3220    11.1610 o          1 H8G      -0.660100
     26 H1         -16.0200   -17.1210     8.6850 hc         1 H8G       0.041700
     27 H2         -15.9570   -18.8890     8.7540 hc         1 H8G       0.041700
     28 H3         -17.4590   -18.0760     8.2970 hc         1 H8G       0.041700
     29 H4         -16.0820   -20.9060    13.3100 hc         1 H8G       0.041700
     30 H5         -16.1860   -19.1480    13.1490 hc         1 H8G       0.041700
     31 H6         -17.6490   -20.0950    13.4650 hc         1 H8G       0.041700
     32 H7         -20.0170   -19.8930     6.3480 h1         1 H8G       0.032367
     33 H8         -21.6100   -19.3970     5.7390 h1         1 H8G       0.032367
     34 H9         -20.1650   -18.4320     5.3760 h1         1 H8G       0.032367
     35 H12        -25.0080   -13.0410     9.9170 ha         1 H8G       0.111000
     36 H13        -23.8990   -15.1840    10.3360 ha         1 H8G       0.114000
     37 H14        -24.6910   -11.7820     7.8160 ha         1 H8G       0.115000
     38 H15        -21.5940   -13.6850     4.2760 h4         1 H8G       0.213000
     39 H16        -16.1030   -17.8920    11.0470 h1         1 H8G       0.051200
     40 H17        -17.5860   -17.0810    10.6330 h1         1 H8G       0.051200
     41 H18        -17.4400   -21.1870    11.2270 h1         1 H8G       0.051200
     42 H19        -15.9720   -20.2740    10.9030 h1         1 H8G       0.051200
     43 H20        -20.9090   -16.5230     5.2580 hc         1 H8G       0.052700
     44 H21        -20.0350   -15.8690     6.6350 hc         1 H8G       0.052700
     45 H22        -22.3280   -19.4560     8.3090 h1         1 H8G       0.049200
     46 H23        -20.6630   -20.0350     8.4620 h1         1 H8G       0.049200
     47 H25        -21.6460   -19.0210    10.5580 h1         1 H8G       0.091700
     48 H26        -22.6480   -17.4250     6.7150 h1         1 H8G       0.037700
     49 H27        -19.2530   -17.5860     9.6570 hn         1 H8G       0.306500
     50 H28        -23.1910   -12.0430     5.2870 hn         1 H8G       0.350000
     51 H10        -22.0710   -16.5930    10.6410 ha         1 H8G       0.186000
@<TRIPOS>BOND
     1     1     9 1   
     2     1    26 1   
     3     1    27 1   
     4     1    28 1   
     5     2    10 1   
     6     2    29 1   
     7     2    30 1   
     8     2    31 1   
     9     3    23 1   
    10     3    32 1   
    11     3    33 1   
    12     3    34 1   
    13     4    14 2   
    14     4    19 1   
    15     4    51 1   
    16     5     6 ar  
    17     5     7 ar  
    18     5    35 1   
    19     6    16 ar  
    20     6    36 1   
    21     7    17 ar  
    22     7    37 1   
    23     8    15 2   
    24     8    22 1   
    25     8    38 1   
    26     9    24 1   
    27     9    39 1   
    28     9    40 1   
    29    10    24 1   
    30    10    41 1   
    31    10    42 1   
    32    11    15 1   
    33    11    20 1   
    34    11    43 1   
    35    11    44 1   
    36    12    19 1   
    37    12    23 1   
    38    12    45 1   
    39    12    46 1   
    40    13    21 1   
    41    13    24 1   
    42    13    25 2   
    43    14    16 1   
    44    14    20 1   
    45    15    18 1   
    46    16    18 ar  
    47    17    18 ar  
    48    17    22 1   
    49    19    21 1   
    50    19    47 1   
    51    20    23 1   
    52    20    48 1   
    53    21    49 1   
    54    22    50 1   
@<TRIPOS>SUBSTRUCTURE
     1 H8G         1 TEMP              0 ****  ****    0 ROOT
