@<TRIPOS>MOLECULE
H8H
   70    75     1     0     0
SMALL
bcc


@<TRIPOS>ATOM
      1 C1           8.8180    -1.1270    -1.8440 c3         1 H8H       0.154100
      2 N2           8.2100    -0.0840    -1.0530 n3         1 H8H      -0.718600
      3 C3           6.9940     0.4150    -1.6610 c6         1 H8H       0.164300
      4 C4           6.4030     1.5460    -0.8400 c6         1 H8H       0.165300
      5 N5           6.1380     1.1060     0.5160 n3         1 H8H      -0.712600
      6 C6           5.5190     2.1260     1.3350 c3         1 H8H       0.169800
      7 C7           4.0930     2.4430     0.9420 c3         1 H8H       0.139400
      8 O8           3.3300     1.2500     1.0500 os         1 H8H      -0.301900
      9 C9           2.0210     1.2930     0.7890 ca         1 H8H       0.214100
     10 C10          1.3640     0.0480     0.8860 ca         1 H8H      -0.278000
     11 C11          0.0170    -0.0460     0.6530 ca         1 H8H       0.230100
     12 O12         -0.6700    -1.1970     0.7410 os         1 H8H      -0.356900
     13 C13         -0.0170    -2.4670     0.8110 c6         1 H8H       0.162100
     14 C14         -1.0730    -3.4860     1.1990 c6         1 H8H      -0.133900
     15 C15         -0.4610    -4.8810     1.1840 c6         1 H8H       0.132900
     16 O16          0.1030    -5.1960    -0.0690 os         1 H8H      -0.397600
     17 C17          1.1170    -4.2900    -0.4380 c6         1 H8H       0.132900
     18 C18          0.6030    -2.8580    -0.5220 c6         1 H8H      -0.133900
     19 C19         -0.7390     1.1130     0.3060 ca         1 H8H      -0.363600
     20 C20         -2.1450     1.1600     0.0310 ca         1 H8H       0.761200
     21 N21         -2.9260     0.0620     0.1370 nu         1 H8H      -0.738300
     22 C22         -4.2860     0.0340    -0.1770 ca         1 H8H       0.171600
     23 C23         -5.2200     0.8170     0.4660 ca         1 H8H       0.077100
     24 O24         -5.0170     1.7200     1.4430 os         1 H8H      -0.292900
     25 C25         -6.3100     2.1090     1.8960 c5         1 H8H       0.324200
     26 O26         -7.2410     1.6390     0.9310 os         1 H8H      -0.317900
     27 C27         -6.5690     0.7530     0.1580 ca         1 H8H       0.062100
     28 C28         -7.0660    -0.1070    -0.7880 ca         1 H8H      -0.116000
     29 C29         -6.1430    -0.9290    -1.4430 ca         1 H8H      -0.113000
     30 C30         -4.7960    -0.8510    -1.1450 ca         1 H8H       0.000400
     31 CL3         -3.6800    -1.8850    -1.9740 cl         1 H8H      -0.101400
     32 N32         -2.7310     2.2840    -0.3390 nb         1 H8H      -0.807000
     33 C33         -1.9740     3.3800    -0.4070 ca         1 H8H       0.709900
     34 N34         -0.7000     3.4890    -0.1580 nb         1 H8H      -0.756000
     35 C35         -0.0540     2.3460     0.1960 ca         1 H8H       0.512600
     36 C36          1.3270     2.4300     0.4440 ca         1 H8H      -0.335300
     37 C37          7.3590     0.6110     1.1230 c6         1 H8H       0.165300
     38 C38          7.9450    -0.5210     0.3020 c6         1 H8H       0.164300
     39 H11          9.0490    -0.7530    -2.8430 h1         1 H8H       0.030367
     40 H12          9.7540    -1.4470    -1.3830 h1         1 H8H       0.030367
     41 H13A         8.1790    -2.0170    -1.9580 h1         1 H8H       0.030367
     42 H31          7.2190     0.7830    -2.6650 h1         1 H8H       0.038450
     43 H32          6.2360    -0.3810    -1.7690 h1         1 H8H       0.038450
     44 H41          7.0900     2.4100    -0.8580 h1         1 H8H       0.037450
     45 H42          5.4740     1.8640    -1.3170 h1         1 H8H       0.037450
     46 H61          5.5230     1.7820     2.3720 h1         1 H8H       0.043200
     47 H62          6.0800     3.0760     1.3220 h1         1 H8H       0.043200
     48 H71          3.7050     3.2120     1.6170 h1         1 H8H       0.042200
     49 H72          4.0290     2.8410    -0.0760 h1         1 H8H       0.042200
     50 H10          1.9580    -0.8170     1.1500 ha         1 H8H       0.154000
     51 H13          0.7500    -2.4410     1.5950 h1         1 H8H       0.053700
     52 H141        -1.4710    -3.2750     2.1930 hc         1 H8H       0.067200
     53 H142        -1.9050    -3.4470     0.4880 hc         1 H8H       0.067200
     54 H151         0.2950    -4.9630     1.9790 h1         1 H8H       0.049450
     55 H152        -1.2290    -5.6290     1.3890 h1         1 H8H       0.049450
     56 H171         1.9540    -4.3380     0.2750 h1         1 H8H       0.049450
     57 H172         1.4970    -4.6100    -1.4080 h1         1 H8H       0.049450
     58 H181        -0.1550    -2.7790    -1.3080 hc         1 H8H       0.067200
     59 H182         1.4310    -2.2020    -0.7970 hc         1 H8H       0.067200
     60 HN21        -2.4600    -0.8160     0.3060 hn         1 H8H       0.477800
     61 H251        -6.5140     1.6480     2.8680 h2         1 H8H       0.066700
     62 H252        -6.3640     3.1940     1.9660 h2         1 H8H       0.066700
     63 H28         -8.1190    -0.1590    -1.0230 ha         1 H8H       0.157000
     64 H29         -6.4880    -1.6270    -2.1920 ha         1 H8H       0.154000
     65 H33         -2.4920     4.2850    -0.7090 h5         1 H8H       0.042100
     66 H36          1.7990     3.3970     0.3470 ha         1 H8H       0.157000
     67 H371         8.1170     1.4070     1.2280 h1         1 H8H       0.037450
     68 H372         7.1360     0.2450     2.1280 h1         1 H8H       0.037450
     69 H381         7.2520    -1.3810     0.3240 h1         1 H8H       0.038450
     70 H382         8.8800    -0.8490     0.7630 h1         1 H8H       0.038450
@<TRIPOS>BOND
     1     1     2 1   
     2     1    39 1   
     3     1    40 1   
     4     1    41 1   
     5     2     3 1   
     6     2    38 1   
     7     3     4 1   
     8     3    42 1   
     9     3    43 1   
    10     4     5 1   
    11     4    44 1   
    12     4    45 1   
    13     5     6 1   
    14     5    37 1   
    15     6     7 1   
    16     6    46 1   
    17     6    47 1   
    18     7     8 1   
    19     7    48 1   
    20     7    49 1   
    21     8     9 1   
    22     9    10 ar  
    23     9    36 ar  
    24    10    11 ar  
    25    10    50 1   
    26    11    12 1   
    27    11    19 ar  
    28    12    13 1   
    29    13    14 1   
    30    13    18 1   
    31    13    51 1   
    32    14    15 1   
    33    14    52 1   
    34    14    53 1   
    35    15    16 1   
    36    15    54 1   
    37    15    55 1   
    38    16    17 1   
    39    17    18 1   
    40    17    56 1   
    41    17    57 1   
    42    18    58 1   
    43    18    59 1   
    44    19    20 ar  
    45    19    35 ar  
    46    20    21 1   
    47    20    32 ar  
    48    21    22 1   
    49    21    60 1   
    50    22    23 ar  
    51    22    30 ar  
    52    23    24 1   
    53    23    27 ar  
    54    24    25 1   
    55    25    26 1   
    56    25    61 1   
    57    25    62 1   
    58    26    27 1   
    59    27    28 ar  
    60    28    29 ar  
    61    28    63 1   
    62    29    30 ar  
    63    29    64 1   
    64    30    31 1   
    65    32    33 ar  
    66    33    34 ar  
    67    33    65 1   
    68    34    35 ar  
    69    35    36 ar  
    70    36    66 1   
    71    37    38 1   
    72    37    67 1   
    73    37    68 1   
    74    38    69 1   
    75    38    70 1   
@<TRIPOS>SUBSTRUCTURE
     1 H8H         1 TEMP              0 ****  ****    0 ROOT
