@<TRIPOS>MOLECULE
H8H
   70    75     1     0     0
SMALL
No Charge or Current Charge


@<TRIPOS>ATOM
      1 C1           8.9990    -1.1150    -2.0790 c3         1 H8H       0.154100
      2 N2           8.3680    -0.0890    -1.2220 n3         1 H8H      -0.718600
      3 C3           7.0230     0.3330    -1.7200 c6         1 H8H       0.164300
      4 C4           6.3730     1.4350    -0.8220 c6         1 H8H       0.165300
      5 N5           6.2800     1.0190     0.6150 n3         1 H8H      -0.712600
      6 C6           5.6480     2.0400     1.5000 c3         1 H8H       0.169800
      7 C7           4.1840     2.4370     1.1620 c3         1 H8H       0.162600
      8 O8           3.3530     1.2610     1.2210 os         1 H8H      -0.325100
      9 C9           2.0020     1.2990     0.9470 ca         1 H8H       0.214100
     10 C10          1.2970     0.0960     1.0040 ca         1 H8H      -0.260000
     11 C11         -0.0860     0.0510     0.7330 ca         1 H8H       0.230100
     12 O12         -0.7860    -1.1470     0.8010 os         1 H8H      -0.380100
     13 C13         -0.1420    -2.4380     0.8250 c6         1 H8H       0.185300
     14 C14         -1.1880    -3.5170     1.1880 c6         1 H8H      -0.133900
     15 C15         -0.5650    -4.9280     1.0960 c6         1 H8H       0.156100
     16 O16         -0.0130    -5.1310    -0.2220 os         1 H8H      -0.444000
     17 C17          1.0430    -4.2080    -0.5640 c6         1 H8H       0.156100
     18 C18          0.4990    -2.7620    -0.5500 c6         1 H8H      -0.133900
     19 C19         -0.7710     1.2560     0.4110 ca         1 H8H      -0.233000
     20 C20         -2.1610     1.3360     0.1260 ca         1 H8H       0.432900
     21 N21         -2.9840     0.2190     0.1040 nu         1 H8H      -0.931900
     22 C22         -4.3570     0.0050    -0.1460 ca         1 H8H       0.310000
     23 C23         -5.3800     0.8140     0.4070 ca         1 H8H       0.077100
     24 O24         -5.2240     1.8540     1.2800 os         1 H8H      -0.316100
     25 C25         -6.5870     2.3830     1.4050 c5         1 H8H       0.370600
     26 O26         -7.5290     1.4220     0.8160 os         1 H8H      -0.341100
     27 C27         -6.7050     0.5630     0.1630 ca         1 H8H       0.062100
     28 C28         -7.1260    -0.5030    -0.6390 ca         1 H8H      -0.098000
     29 C29         -6.1390    -1.3360    -1.2020 ca         1 H8H      -0.095000
     30 C30         -4.7690    -1.0910    -0.9540 ca         1 H8H       0.092000
     31 Cl3         -3.5760    -2.1720    -1.6840 cl         1 H8H      -0.193000
     32 N32         -2.7520     2.4940    -0.2100 nb         1 H8H      -0.281000
     33 C33         -1.9740     3.5870    -0.2310 ca         1 H8H       0.183900
     34 N34         -0.6580     3.6330     0.0350 nb         1 H8H      -0.230000
     35 C35         -0.0470     2.4750     0.3530 ca         1 H8H       0.119000
     36 C36          1.3280     2.4850     0.6200 ca         1 H8H      -0.252000
     37 C37          7.6260     0.5930     1.1080 c6         1 H8H       0.165300
     38 C38          8.2720    -0.5090     0.2090 c6         1 H8H       0.164300
     39 H11          9.0980    -0.7510    -3.1100 h1         1 H8H       0.030367
     40 H12         10.0040    -1.3620    -1.7100 h1         1 H8H       0.030367
     41 H13A         8.4010    -2.0360    -2.0940 h1         1 H8H       0.030367
     42 H31          7.1020     0.7200    -2.7470 h1         1 H8H       0.038450
     43 H32          6.3450    -0.5320    -1.7550 h1         1 H8H       0.038450
     44 H41          6.9690     2.3550    -0.9100 h1         1 H8H       0.037450
     45 H42          5.3750     1.6560    -1.2260 h1         1 H8H       0.037450
     46 H61          5.6530     1.6740     2.5360 h1         1 H8H       0.043200
     47 H62          6.2530     2.9570     1.4920 h1         1 H8H       0.043200
     48 H71          3.8440     3.1830     1.8910 h1         1 H8H       0.042200
     49 H72          4.1460     2.8930     0.1650 h1         1 H8H       0.042200
     50 H10          1.8560    -0.7930     1.2690 ha         1 H8H       0.136000
     51 H13          0.6240    -2.4530     1.6130 h1         1 H8H       0.053700
     52 H141        -1.5690    -3.3440     2.2030 hc         1 H8H       0.067200
     53 H142        -2.0490    -3.4540     0.5110 hc         1 H8H       0.067200
     54 H151         0.2290    -5.0480     1.8470 h1         1 H8H       0.049450
     55 H152        -1.3330    -5.6920     1.2850 h1         1 H8H       0.049450
     56 H171         1.8680    -4.3160     0.1550 h1         1 H8H       0.049450
     57 H172         1.4250    -4.4570    -1.5640 h1         1 H8H       0.049450
     58 H181        -0.2470    -2.6440    -1.3470 hc         1 H8H       0.067200
     59 H182         1.3140    -2.0630    -0.7740 hc         1 H8H       0.067200
     60 HN21        -2.4280    -0.6380     0.1450 hn         1 H8H       0.533000
     61 H251        -6.8290     2.5480     2.4610 h2         1 H8H       0.066700
     62 H252        -6.6520     3.3260     0.8510 h2         1 H8H       0.066700
     63 H28         -8.1840    -0.6870    -0.8110 ha         1 H8H       0.139000
     64 H29         -6.4330    -2.1770    -1.8270 ha         1 H8H       0.136000
     65 H33         -2.4550     4.5270    -0.4940 h5         1 H8H       0.042100
     66 H36          1.8580     3.4310     0.5690 ha         1 H8H       0.139000
     67 H371         8.3050     1.4580     1.1430 h1         1 H8H       0.037450
     68 H372         7.5480     0.2050     2.1350 h1         1 H8H       0.037450
     69 H381         7.6690    -1.4260     0.2940 h1         1 H8H       0.038450
     70 H382         9.2710    -0.7440     0.6050 h1         1 H8H       0.038450
@<TRIPOS>BOND
     1     1     2 1   
     2     1    39 1   
     3     1    40 1   
     4     1    41 1   
     5     2     3 1   
     6     2    38 1   
     7     3     4 1   
     8     3    42 1   
     9     3    43 1   
    10     4     5 1   
    11     4    44 1   
    12     4    45 1   
    13     5     6 1   
    14     5    37 1   
    15     6     7 1   
    16     6    46 1   
    17     6    47 1   
    18     7     8 1   
    19     7    48 1   
    20     7    49 1   
    21     8     9 1   
    22     9    10 ar  
    23     9    36 ar  
    24    10    11 ar  
    25    10    50 1   
    26    11    12 1   
    27    11    19 ar  
    28    12    13 1   
    29    13    14 1   
    30    13    18 1   
    31    13    51 1   
    32    14    15 1   
    33    14    52 1   
    34    14    53 1   
    35    15    16 1   
    36    15    54 1   
    37    15    55 1   
    38    16    17 1   
    39    17    18 1   
    40    17    56 1   
    41    17    57 1   
    42    18    58 1   
    43    18    59 1   
    44    19    20 ar  
    45    19    35 ar  
    46    20    21 1   
    47    20    32 ar  
    48    21    22 1   
    49    21    60 1   
    50    22    23 ar  
    51    22    30 ar  
    52    23    24 1   
    53    23    27 ar  
    54    24    25 1   
    55    25    26 1   
    56    25    61 1   
    57    25    62 1   
    58    26    27 1   
    59    27    28 ar  
    60    28    29 ar  
    61    28    63 1   
    62    29    30 ar  
    63    29    64 1   
    64    30    31 1   
    65    32    33 ar  
    66    33    34 ar  
    67    33    65 1   
    68    34    35 ar  
    69    35    36 ar  
    70    36    66 1   
    71    37    38 1   
    72    37    67 1   
    73    37    68 1   
    74    38    69 1   
    75    38    70 1   
@<TRIPOS>SUBSTRUCTURE
     1 H8H         1 TEMP              0 ****  ****    0 ROOT
