@<TRIPOS>MOLECULE
H8I
   43    46     1     0     0
SMALL
bcc


@<TRIPOS>ATOM
      1 C10         96.8310   125.3770   117.3320 ca         1 H8I      -0.113000
      2 C12         96.6130   124.6840   115.0310 ca         1 H8I      -0.113000
      3 C13         97.7920   119.4830   114.1270 ca         1 H8I       0.057600
      4 C18         96.8880   118.5380   114.5930 ca         1 H8I      -0.139000
      5 C19         99.8260   120.8640   114.2950 c6         1 H8I      -0.027100
      6 C20        100.1360   120.5930   112.8160 c6         1 H8I      -0.086400
      7 C21         98.9510   119.9520   112.0740 c6         1 H8I       0.099000
      8 C11         96.7270   125.6820   115.9850 ca         1 H8I       0.031400
      9 C14         98.9240   119.8190   114.8710 ca         1 H8I      -0.083300
     10 C15         99.1360   119.1930   116.0900 ca         1 H8I      -0.108000
     11 C16         98.2220   118.2690   116.5780 ca         1 H8I      -0.138000
     12 C17         97.0950   117.9500   115.8330 ca         1 H8I      -0.119000
     13 C2          95.4150   120.8160   113.1910 ca         1 H8I      -0.270900
     14 C3          95.4130   121.7370   114.2390 ca         1 H8I       0.677600
     15 C4          93.2200   121.4010   114.6960 ca         1 H8I       0.458200
     16 C5          93.0880   120.4820   113.6730 ca         1 H8I      -0.286300
     17 C6          94.2070   120.2060   112.8980 ca         1 H8I      -0.031000
     18 C7          96.6090   123.3610   115.4360 ca         1 H8I       0.126100
     19 C8          96.7130   123.0400   116.7850 ca         1 H8I       0.022400
     20 C9          96.8250   124.0490   117.7270 ca         1 H8I      -0.110000
     21 N1          94.3620   122.0280   114.9630 nb         1 H8I      -0.735000
     22 N2          97.7100   120.0620   112.8400 n          1 H8I      -0.378000
     23 O1          96.5750   122.3860   114.4810 os         1 H8I      -0.356400
     24 O2          96.5170   120.9330   111.1240 o          1 H8I      -0.586100
     25 CL1         96.7190   121.3910   117.2680 cl         1 H8I      -0.070400
     26 CL2         96.7370   127.3340   115.4780 cl         1 H8I      -0.096400
     27 H1          96.9220   126.1600   118.0730 ha         1 H8I       0.153000
     28 H2          96.5330   124.9210   113.9780 ha         1 H8I       0.166000
     29 H4         100.7500   120.9420   114.8690 hc         1 H8I       0.056200
     30 H5          99.3240   121.8320   114.3790 hc         1 H8I       0.056200
     31 H6         100.9950   119.9270   112.7350 hc         1 H8I       0.047700
     32 H7         100.4180   121.5300   112.3340 hc         1 H8I       0.047700
     33 H8          98.8000   120.4140   111.1030 h1         1 H8I       0.061700
     34 H9          99.1410   118.8910   111.9030 h1         1 H8I       0.061700
     35 H10        100.0180   119.4420   116.6690 ha         1 H8I       0.133000
     36 H11         98.3930   117.7920   117.5350 ha         1 H8I       0.132000
     37 H12         96.3870   117.2190   116.2020 ha         1 H8I       0.132000
     38 H13         92.3750   121.6570   115.3240 h4         1 H8I       0.025100
     39 H14         92.1390   120.0040   113.4790 ha         1 H8I       0.150000
     40 H15         94.1440   119.5030   112.0780 ha         1 H8I       0.151000
     41 H16         96.9080   123.8010   118.7770 ha         1 H8I       0.152000
     42 C1          96.5990   120.6080   112.2960 c          1 H8I       0.710700
     43 H3          96.0380   118.2430   113.9930 ha         1 H8I       0.136000
@<TRIPOS>BOND
     1     1     8 ar  
     2     1    20 ar  
     3     1    27 1   
     4     2     8 ar  
     5     2    18 ar  
     6     2    28 1   
     7     3     4 ar  
     8     3     9 ar  
     9     3    22 1   
    10     4    12 ar  
    11     4    43 1   
    12     5     6 1   
    13     5     9 1   
    14     5    29 1   
    15     5    30 1   
    16     6     7 1   
    17     6    31 1   
    18     6    32 1   
    19     7    22 1   
    20     7    33 1   
    21     7    34 1   
    22     8    26 1   
    23     9    10 ar  
    24    10    11 ar  
    25    10    35 1   
    26    11    12 ar  
    27    11    36 1   
    28    12    37 1   
    29    13    14 ar  
    30    13    17 ar  
    31    13    42 1   
    32    14    21 ar  
    33    14    23 1   
    34    15    16 ar  
    35    15    21 ar  
    36    15    38 1   
    37    16    17 ar  
    38    16    39 1   
    39    17    40 1   
    40    18    19 ar  
    41    18    23 1   
    42    19    20 ar  
    43    19    25 1   
    44    20    41 1   
    45    22    42 1   
    46    24    42 2   
@<TRIPOS>SUBSTRUCTURE
     1 H8I         1 TEMP              0 ****  ****    0 ROOT
