@<TRIPOS>MOLECULE
H8I
   43    46     1     0     0
SMALL
No Charge or Current Charge


@<TRIPOS>ATOM
      1 C10         96.7530   125.5010   117.1310 ca         1 H8I      -0.095000
      2 C12         96.5090   124.5350   114.9080 ca         1 H8I      -0.095000
      3 C13         97.9280   119.4730   114.1170 ca         1 H8I      -0.035000
      4 C18         96.9050   118.6630   114.6620 ca         1 H8I      -0.121000
      5 C19        100.1780   120.6130   114.3390 c6         1 H8I      -0.027100
      6 C20        100.3050   120.3260   112.8310 c6         1 H8I      -0.086400
      7 C21         98.9650   120.5880   112.1010 c6         1 H8I       0.099000
      8 C11         96.5810   125.6600   115.7460 ca         1 H8I       0.123000
      9 C14         99.0660   119.7430   114.9120 ca         1 H8I      -0.083300
     10 C15         99.2090   119.1580   116.1850 ca         1 H8I      -0.090000
     11 C16         98.2030   118.3230   116.6930 ca         1 H8I      -0.120000
     12 C17         97.0500   118.0780   115.9320 ca         1 H8I      -0.101000
     13 C2          95.2890   120.7180   113.1640 ca         1 H8I      -0.205600
     14 C3          95.3610   121.5220   114.3170 ca         1 H8I       0.612300
     15 C4          93.1030   121.2020   114.7600 ca         1 H8I       0.392900
     16 C5          92.9400   120.4140   113.6140 ca         1 H8I      -0.203000
     17 C6          94.0460   120.1740   112.7880 ca         1 H8I      -0.013000
     18 C7          96.6050   123.2450   115.4580 ca         1 H8I       0.126100
     19 C8          96.7850   123.0810   116.8490 ca         1 H8I       0.114000
     20 C9          96.8570   124.2110   117.6830 ca         1 H8I      -0.092000
     21 N1          94.2830   121.7600   115.1010 nb         1 H8I      -0.735000
     22 N2          97.7460   120.2230   112.8820 n          1 H8I      -0.218400
     23 O1          96.5430   122.1580   114.6160 os         1 H8I      -0.356400
     24 O2          96.3820   120.6790   111.0830 o          1 H8I      -0.586100
     25 Cl1         96.9210   121.4770   117.5670 cl         1 H8I      -0.162000
     26 Cl2         96.4560   127.2740   115.0570 cl         1 H8I      -0.188000
     27 H1          96.8090   126.3760   117.7750 ha         1 H8I       0.135000
     28 H2          96.3790   124.6620   113.8380 ha         1 H8I       0.148000
     29 H4         101.1340   120.4080   114.8400 hc         1 H8I       0.056200
     30 H5          99.9470   121.6740   114.5090 hc         1 H8I       0.056200
     31 H6         100.5940   119.2760   112.6900 hc         1 H8I       0.047700
     32 H7         101.1040   120.9340   112.3860 hc         1 H8I       0.047700
     33 H8          98.9040   121.6620   111.8700 h1         1 H8I       0.061700
     34 H9          98.9650   120.0510   111.1420 h1         1 H8I       0.061700
     35 H10        100.0990   119.3510   116.7800 ha         1 H8I       0.115000
     36 H11         98.3130   117.8720   117.6760 ha         1 H8I       0.114000
     37 H12         96.2650   117.4380   116.3280 ha         1 H8I       0.114000
     38 H13         92.2590   121.4080   115.4170 h4         1 H8I       0.025100
     39 H14         91.9650   120.0010   113.3720 ha         1 H8I       0.132000
     40 H15         93.9450   119.5710   111.8870 ha         1 H8I       0.133000
     41 H16         96.9930   124.0860   118.7540 ha         1 H8I       0.134000
     42 C1          96.4860   120.5070   112.2930 c          1 H8I       0.643700
     43 H3          96.0060   118.4410   114.0960 ha         1 H8I       0.118000
@<TRIPOS>BOND
     1     1     8 ar  
     2     1    20 ar  
     3     1    27 1   
     4     2     8 ar  
     5     2    18 ar  
     6     2    28 1   
     7     3     4 ar  
     8     3     9 ar  
     9     3    22 1   
    10     4    12 ar  
    11     4    43 1   
    12     5     6 1   
    13     5     9 1   
    14     5    29 1   
    15     5    30 1   
    16     6     7 1   
    17     6    31 1   
    18     6    32 1   
    19     7    22 1   
    20     7    33 1   
    21     7    34 1   
    22     8    26 1   
    23     9    10 ar  
    24    10    11 ar  
    25    10    35 1   
    26    11    12 ar  
    27    11    36 1   
    28    12    37 1   
    29    13    14 ar  
    30    13    17 ar  
    31    13    42 1   
    32    14    21 ar  
    33    14    23 1   
    34    15    16 ar  
    35    15    21 ar  
    36    15    38 1   
    37    16    17 ar  
    38    16    39 1   
    39    17    40 1   
    40    18    19 ar  
    41    18    23 1   
    42    19    20 ar  
    43    19    25 1   
    44    20    41 1   
    45    22    42 1   
    46    24    42 2   
@<TRIPOS>SUBSTRUCTURE
     1 H8I         1 TEMP              0 ****  ****    0 ROOT
