@<TRIPOS>MOLECULE
H8J
   53    56     1     0     0
SMALL
No Charge or Current Charge


@<TRIPOS>ATOM
      1 CAA          6.0670     1.8350    -0.4560 c3         1 H8J      -0.089100
      2 CAB         -0.1230     3.5410     0.4140 c3         1 H8J       0.154100
      3 CAC         -7.0850    -0.4650     0.1090 c3         1 H8J       0.067900
      4 CAF          0.1940    -0.7650    -0.0680 c2         1 H8J      -0.190200
      5 CAG         -3.5580    -2.9660    -1.2200 ca         1 H8J      -0.096000
      6 CAH         -2.3040    -2.3240    -1.0150 ca         1 H8J      -0.121000
      7 CAI         -4.7730    -2.3270    -0.8600 ca         1 H8J      -0.120000
      8 CAJ         -5.0370     1.0260     0.6550 cc         1 H8J      -0.146100
      9 CAK          6.3040     0.4310     0.1440 c3         1 H8J      -0.085400
     10 CAL          5.5580    -2.0460     0.2580 c3         1 H8J       0.140600
     11 CAM         -2.5270     1.7080     0.8400 c6         1 H8J       0.011800
     12 CAN          1.2190     1.5600    -0.1290 c6         1 H8J       0.175800
     13 CAQ         -1.0350    -0.2090    -0.1710 ce         1 H8J      -0.043400
     14 CAR         -3.6760     0.8030     0.4760 cd         1 H8J      -0.141400
     15 CAS         -2.2590    -1.0310    -0.4410 ca         1 H8J      -0.001800
     16 CAT         -4.6840    -1.0460    -0.2960 ca         1 H8J      -0.039200
     17 CAU         -3.4760    -0.4660    -0.1110 ca         1 H8J      -0.106800
     18 CAV          1.4400     0.0700     0.2040 c6         1 H8J      -0.105500
     19 CAW          5.2290    -0.6130    -0.2490 c3         1 H8J       0.115700
     20 CAX         -1.2450     1.3430    -0.0070 c6         1 H8J       0.222700
     21 NAO          3.8950    -0.1820     0.1920 ns         1 H8J      -0.494900
     22 NAY         -0.0260     2.0640     0.5080 n3         1 H8J      -0.723600
     23 NAZ         -5.6490    -0.1540     0.1610 na         1 H8J      -0.093700
     24 OAD          2.7010    -1.0610    -1.5350 o          1 H8J      -0.610100
     25 H1           6.8880     2.5090    -0.1840 hc         1 H8J       0.034700
     26 H2           6.0150     1.7850    -1.5500 hc         1 H8J       0.034700
     27 H3           5.1320     2.2720    -0.0840 hc         1 H8J       0.034700
     28 H4          -0.9470     3.9280     1.0280 h1         1 H8J       0.031367
     29 H5           0.8000     4.0130     0.7770 h1         1 H8J       0.031367
     30 H6          -0.2840     3.8580    -0.6250 h1         1 H8J       0.031367
     31 H7          -7.3860    -0.6410    -0.9310 h1         1 H8J       0.047033
     32 H8          -7.2880    -1.3650     0.7040 h1         1 H8J       0.047033
     33 H9          -7.6620     0.3740     0.5160 h1         1 H8J       0.047033
     34 H11         -3.5860    -3.9590    -1.6640 ha         1 H8J       0.108000
     35 H12         -1.3900    -2.8290    -1.3120 ha         1 H8J       0.115000
     36 H13         -5.7320    -2.8140    -1.0170 ha         1 H8J       0.113000
     37 H14         -5.5870     1.8640     1.0710 h4         1 H8J       0.210000
     38 H15          7.2860     0.0720    -0.1890 hc         1 H8J       0.050700
     39 H16          6.3550     0.5160     1.2370 hc         1 H8J       0.050700
     40 H17          4.8240    -2.7460    -0.1650 h1         1 H8J       0.031200
     41 H18          6.5460    -2.3400    -0.1210 h1         1 H8J       0.031200
     42 H19         -2.8120     2.7550     0.6760 hc         1 H8J       0.053200
     43 H20         -2.3010     1.6030     1.9090 hc         1 H8J       0.053200
     44 H21          2.0910     2.1340     0.2190 h1         1 H8J       0.046700
     45 H22          1.1650     1.6850    -1.2220 h1         1 H8J       0.046700
     46 H23          1.6480     0.0720     1.2820 hc         1 H8J       0.072700
     47 H24          5.2210    -0.6610    -1.3470 h1         1 H8J       0.078700
     48 H25         -1.4430     1.7070    -1.0270 h1         1 H8J       0.040700
     49 H26          3.8190     0.2920     1.0830 hn         1 H8J       0.320500
     50 H28          5.7280    -3.0490     1.9420 ho         1 H8J       0.444000
     51 OAE          5.5330    -2.1170     1.6960 oh         1 H8J      -0.666000
     52 CAP          2.7220    -0.4340    -0.4840 c          1 H8J       0.600100
     53 H10          0.3430    -1.8400    -0.1680 ha         1 H8J       0.182000
@<TRIPOS>BOND
     1     1     9 1   
     2     1    25 1   
     3     1    26 1   
     4     1    27 1   
     5     2    22 1   
     6     2    28 1   
     7     2    29 1   
     8     2    30 1   
     9     3    23 1   
    10     3    31 1   
    11     3    32 1   
    12     3    33 1   
    13     4    13 2   
    14     4    18 1   
    15     4    53 1   
    16     5     6 ar  
    17     5     7 ar  
    18     5    34 1   
    19     6    15 ar  
    20     6    35 1   
    21     7    16 ar  
    22     7    36 1   
    23     8    14 2   
    24     8    23 1   
    25     8    37 1   
    26     9    19 1   
    27     9    38 1   
    28     9    39 1   
    29    10    19 1   
    30    10    40 1   
    31    10    41 1   
    32    10    51 1   
    33    11    14 1   
    34    11    20 1   
    35    11    42 1   
    36    11    43 1   
    37    12    18 1   
    38    12    22 1   
    39    12    44 1   
    40    12    45 1   
    41    13    15 1   
    42    13    20 1   
    43    14    17 1   
    44    15    17 ar  
    45    16    17 ar  
    46    16    23 1   
    47    18    46 1   
    48    18    52 1   
    49    19    21 1   
    50    19    47 1   
    51    20    22 1   
    52    20    48 1   
    53    21    49 1   
    54    21    52 1   
    55    24    52 2   
    56    50    51 1   
@<TRIPOS>SUBSTRUCTURE
     1 H8J         1 TEMP              0 ****  ****    0 ROOT
