@<TRIPOS>MOLECULE
H8J
   53    56     1     0     0
SMALL
bcc


@<TRIPOS>ATOM
      1 CAA          6.3260     1.4660     0.2680 c3         1 H8J      -0.089100
      2 CAB         -0.4570     3.7650    -0.1900 c3         1 H8J       0.154100
      3 CAC         -6.8700    -0.7650     0.2600 c3         1 H8J       0.038600
      4 CAF          0.3550    -0.3470     0.1000 c2         1 H8J      -0.140200
      5 CAG         -3.0960    -3.0120    -0.8360 ca         1 H8J      -0.114000
      6 CAH         -1.9290    -2.2370    -0.7110 ca         1 H8J      -0.139000
      7 CAI         -4.3630    -2.5220    -0.5500 ca         1 H8J      -0.138000
      8 CAJ         -4.9730     0.8480     0.6110 cc         1 H8J      -0.096100
      9 CAK          6.2100    -0.0360     0.4860 c3         1 H8J      -0.085400
     10 CAL          5.0540    -2.1850    -0.2260 c3         1 H8J       0.117400
     11 CAM         -2.5150     1.8260     0.7430 c6         1 H8J       0.011800
     12 CAN          1.0590     1.9450    -0.4290 c6         1 H8J       0.175800
     13 CAQ         -0.9050     0.0410    -0.0990 ce         1 H8J      -0.043400
     14 CAR         -3.6130     0.8500     0.4870 cd         1 H8J      -0.141400
     15 CAS         -2.0040    -0.9230    -0.2710 ca         1 H8J      -0.001800
     16 CAT         -4.4420    -1.1980    -0.1160 ca         1 H8J      -0.039200
     17 CAU         -3.2750    -0.4380     0.0200 ca         1 H8J      -0.106800
     18 CAV          1.4910     0.6230     0.1910 c6         1 H8J      -0.105500
     19 CAW          5.0430    -0.6640    -0.2740 c3         1 H8J       0.115700
     20 CAX         -1.3040     1.5120    -0.1720 c6         1 H8J       0.222700
     21 NAO          3.7890    -0.1260     0.2190 ns         1 H8J      -0.561900
     22 NAY         -0.1880     2.3850     0.1640 n3         1 H8J      -0.723600
     23 NAZ         -5.4790    -0.3860     0.2500 na         1 H8J      -0.064400
     24 OAD          2.6670    -0.1710    -1.7420 o          1 H8J      -0.610100
     25 H1           7.1720     1.8740     0.8220 hc         1 H8J       0.034700
     26 H2           6.4760     1.7010    -0.7870 hc         1 H8J       0.034700
     27 H3           5.4320     1.9950     0.6010 hc         1 H8J       0.034700
     28 H4          -1.2880     4.1690     0.3850 h1         1 H8J       0.031367
     29 H5           0.4160     4.3770     0.0380 h1         1 H8J       0.031367
     30 H6          -0.6910     3.8960    -1.2580 h1         1 H8J       0.031367
     31 H7          -7.1920    -1.0940    -0.7280 h1         1 H8J       0.047033
     32 H8          -7.0540    -1.5690     0.9730 h1         1 H8J       0.047033
     33 H9          -7.4710     0.0930     0.5470 h1         1 H8J       0.047033
     34 H11         -3.0010    -4.0330    -1.1830 ha         1 H8J       0.126000
     35 H12         -0.9770    -2.6750    -0.9830 ha         1 H8J       0.133000
     36 H13         -5.2380    -3.1490    -0.6660 ha         1 H8J       0.131000
     37 H14         -5.6470     1.6290     0.9310 h4         1 H8J       0.160000
     38 H15          7.1280    -0.5250     0.1520 hc         1 H8J       0.050700
     39 H16          6.1210    -0.2530     1.5540 hc         1 H8J       0.050700
     40 H17          4.2210    -2.5650    -0.8310 h1         1 H8J       0.031200
     41 H18          5.9810    -2.5340    -0.7020 h1         1 H8J       0.031200
     42 H19         -2.8570     2.8480     0.5740 hc         1 H8J       0.053200
     43 H20         -2.1760     1.7720     1.7820 hc         1 H8J       0.053200
     44 H21          1.8190     2.7060    -0.2390 h1         1 H8J       0.046700
     45 H22          0.9820     1.8310    -1.5220 h1         1 H8J       0.046700
     46 H23          1.7450     0.7970     1.2430 hc         1 H8J       0.072700
     47 H24          5.1270    -0.3850    -1.3270 h1         1 H8J       0.078700
     48 H25         -1.6350     1.6950    -1.2130 h1         1 H8J       0.040700
     49 H26          3.7060     0.0290     1.2110 hn         1 H8J       0.320500
     50 H28          4.9220    -3.5690     1.1240 ho         1 H8J       0.405000
     51 OAE          4.9600    -2.6090     1.1130 oh         1 H8J      -0.603800
     52 CAP          2.7030     0.0680    -0.5420 c          1 H8J       0.667100
     53 H10          0.5800    -1.4040     0.2000 ha         1 H8J       0.132000
@<TRIPOS>BOND
     1     1     9 1   
     2     1    25 1   
     3     1    26 1   
     4     1    27 1   
     5     2    22 1   
     6     2    28 1   
     7     2    29 1   
     8     2    30 1   
     9     3    23 1   
    10     3    31 1   
    11     3    32 1   
    12     3    33 1   
    13     4    13 2   
    14     4    18 1   
    15     4    53 1   
    16     5     6 ar  
    17     5     7 ar  
    18     5    34 1   
    19     6    15 ar  
    20     6    35 1   
    21     7    16 ar  
    22     7    36 1   
    23     8    14 2   
    24     8    23 1   
    25     8    37 1   
    26     9    19 1   
    27     9    38 1   
    28     9    39 1   
    29    10    19 1   
    30    10    40 1   
    31    10    41 1   
    32    10    51 1   
    33    11    14 1   
    34    11    20 1   
    35    11    42 1   
    36    11    43 1   
    37    12    18 1   
    38    12    22 1   
    39    12    44 1   
    40    12    45 1   
    41    13    15 1   
    42    13    20 1   
    43    14    17 1   
    44    15    17 ar  
    45    16    17 ar  
    46    16    23 1   
    47    18    46 1   
    48    18    52 1   
    49    19    21 1   
    50    19    47 1   
    51    20    22 1   
    52    20    48 1   
    53    21    49 1   
    54    21    52 1   
    55    24    52 2   
    56    50    51 1   
@<TRIPOS>SUBSTRUCTURE
     1 H8J         1 TEMP              0 ****  ****    0 ROOT
