@<TRIPOS>MOLECULE
H8K
   49    53     1     0     0
SMALL
abcg2


@<TRIPOS>ATOM
      1 O1           8.6930     1.4710     0.2390 oh         1 H8K      -0.659000
      2 C1           7.4050     0.9770     0.5500 c6         1 H8K       0.169300
      3 C6           6.3370     2.0620     0.4770 c6         1 H8K      -0.090400
      4 C5           4.9500     1.4920     0.7540 c6         1 H8K      -0.089400
      5 C4           4.6070     0.3490    -0.1990 c6         1 H8K       0.173500
      6 C3           5.6970    -0.7270    -0.1440 c6         1 H8K      -0.089400
      7 C2           7.0820    -0.1480    -0.4200 c6         1 H8K      -0.090400
      8 N1           3.2640    -0.1230     0.0890 n7         1 H8K      -0.871400
      9 C7           2.7370    -1.1010    -0.8430 c3         1 H8K       0.212100
     10 C8           1.2630    -1.3140    -0.6160 ca         1 H8K      -0.084300
     11 C21          0.3950    -0.2180    -0.6200 ca         1 H8K      -0.076000
     12 C12         -0.9560    -0.4120    -0.4250 ca         1 H8K      -0.089300
     13 C13         -2.0600     0.6330    -0.4040 c5         1 H8K       0.056200
     14 C14         -3.2570    -0.2220    -0.1520 cc         1 H8K      -0.207300
     15 C16         -4.6200    -0.2080     0.0300 cd         1 H8K      -0.031000
     16 C17         -5.5880     0.8650     0.0370 cd         1 H8K      -0.106000
     17 C20         -6.9950     0.7950     0.3120 cd         1 H8K      -0.185000
     18 C19         -7.4590     2.0590     0.2020 cc         1 H8K       0.127900
     19 O2          -6.4570     2.9010    -0.1190 os         1 H8K      -0.229000
     20 C18         -5.3310     2.1760    -0.2180 cc         1 H8K       0.155900
     21 N3          -4.9580    -1.5100     0.2290 na         1 H8K      -0.007200
     22 N2          -3.9290    -2.3590     0.1930 nd         1 H8K      -0.481800
     23 C15         -2.8980    -1.5710    -0.0400 cc         1 H8K       0.291500
     24 C11         -1.4610    -1.7090    -0.2110 ca         1 H8K      -0.113500
     25 C10         -0.6110    -2.8010    -0.1970 ca         1 H8K      -0.077000
     26 C9           0.7500    -2.5900    -0.4000 ca         1 H8K      -0.113000
     27 H4           8.8990     2.1780     0.8570 ho         1 H8K       0.441000
     28 H1           7.3930     0.5580     1.5700 h1         1 H8K       0.026700
     29 H11          6.5610     2.8580     1.1940 hc         1 H8K       0.049950
     30 H12          6.3570     2.5150    -0.5200 hc         1 H8K       0.049950
     31 H9           4.9030     1.1220     1.7860 hc         1 H8K       0.044700
     32 H10          4.1950     2.2760     0.6690 hc         1 H8K       0.044700
     33 H2           4.5890     0.7570    -1.2190 h1         1 H8K       0.058700
     34 H8           5.6830    -1.1910     0.8500 hc         1 H8K       0.044700
     35 H7           5.4860    -1.5210    -0.8630 hc         1 H8K       0.044700
     36 H6           7.1210     0.2400    -1.4440 hc         1 H8K       0.049950
     37 H5           7.8390    -0.9330    -0.3480 hc         1 H8K       0.049950
     38 H13          3.2330    -0.5030     1.0290 hn         1 H8K       0.414000
     39 H15          2.8920    -0.7110    -1.8540 h1         1 H8K       0.035700
     40 H14          3.2500    -2.0720    -0.8130 h1         1 H8K       0.035700
     41 H23          0.7920     0.7790    -0.7780 ha         1 H8K       0.126000
     42 H19         -1.8920     1.3770     0.3810 hc         1 H8K       0.063200
     43 H18         -2.1100     1.1820    -1.3490 hc         1 H8K       0.063200
     44 H22         -7.5790    -0.0760     0.5610 ha         1 H8K       0.140000
     45 H21         -8.4400     2.4900     0.3200 h4         1 H8K       0.057100
     46 H20         -4.4270     2.7060    -0.4740 h4         1 H8K       0.061100
     47 H3          -5.8840    -1.8720     0.3960 hn         1 H8K       0.371000
     48 H17         -0.9900    -3.8010    -0.0270 ha         1 H8K       0.125000
     49 H16          1.4270    -3.4360    -0.3870 ha         1 H8K       0.110000
@<TRIPOS>BOND
     1     1     2 1   
     2     1    27 1   
     3     2     3 1   
     4     2     7 1   
     5     2    28 1   
     6     3     4 1   
     7     3    29 1   
     8     3    30 1   
     9     4     5 1   
    10     4    31 1   
    11     4    32 1   
    12     5     6 1   
    13     5     8 1   
    14     5    33 1   
    15     6     7 1   
    16     6    34 1   
    17     6    35 1   
    18     7    36 1   
    19     7    37 1   
    20     8     9 1   
    21     8    38 1   
    22     9    10 1   
    23     9    39 1   
    24     9    40 1   
    25    10    11 ar  
    26    10    26 ar  
    27    11    12 ar  
    28    11    41 1   
    29    12    13 1   
    30    12    24 ar  
    31    13    14 1   
    32    13    42 1   
    33    13    43 1   
    34    14    15 2   
    35    14    23 1   
    36    15    16 1   
    37    15    21 1   
    38    16    17 1   
    39    16    20 2   
    40    17    18 2   
    41    17    44 1   
    42    18    19 1   
    43    18    45 1   
    44    19    20 1   
    45    20    46 1   
    46    21    22 1   
    47    21    47 1   
    48    22    23 2   
    49    23    24 1   
    50    24    25 ar  
    51    25    26 ar  
    52    25    48 1   
    53    26    49 1   
@<TRIPOS>SUBSTRUCTURE
     1 H8K         1 TEMP              0 ****  ****    0 ROOT
