@<TRIPOS>MOLECULE
H8K
   49    53     1     0     0
SMALL
No Charge or Current Charge


@<TRIPOS>ATOM
      1 O1           8.9170     1.1120     0.4290 oh         1 H8K      -0.659000
      2 C1           7.5730     0.6800     0.6530 c6         1 H8K       0.169300
      3 C6           6.6210     1.9020     0.6810 c6         1 H8K      -0.090400
      4 C5           5.1450     1.4600     0.8540 c6         1 H8K      -0.089400
      5 C4           4.7140     0.4660    -0.2560 c6         1 H8K       0.173500
      6 C3           5.6720    -0.7570    -0.2870 c6         1 H8K      -0.089400
      7 C2           7.1490    -0.3150    -0.4560 c6         1 H8K      -0.090400
      8 N1           3.3120     0.0570    -0.0390 n7         1 H8K      -0.871400
      9 C7           2.6200    -0.6480    -1.1340 c3         1 H8K       0.212100
     10 C8           1.1790    -0.9480    -0.7450 ca         1 H8K      -0.084300
     11 C21          0.1860     0.0490    -0.8970 ca         1 H8K      -0.076000
     12 C12         -1.1400    -0.2400    -0.5390 ca         1 H8K      -0.089300
     13 C13         -2.3550     0.7130    -0.6330 c5         1 H8K       0.056200
     14 C14         -3.3940    -0.2690    -0.0890 cc         1 H8K      -0.207300
     15 C16         -4.7170    -0.3340     0.1910 cd         1 H8K      -0.031000
     16 C17         -5.7070     0.6910     0.0280 cd         1 H8K      -0.106000
     17 C20         -7.0800     0.6050     0.3260 cd         1 H8K      -0.185000
     18 C19         -7.6210     1.8210     0.0080 cc         1 H8K       0.127900
     19 O2          -6.6340     2.6580    -0.4750 os         1 H8K      -0.229000
     20 C18         -5.4540     1.9450    -0.4570 cc         1 H8K       0.155900
     21 N3          -4.9060    -1.6430     0.6830 na         1 H8K      -0.007200
     22 N2          -3.7000    -2.3840     0.7060 nd         1 H8K      -0.481800
     23 C15         -2.8560    -1.4920     0.2310 cc         1 H8K       0.291500
     24 C11         -1.4560    -1.5000    -0.0390 ca         1 H8K      -0.113500
     25 C10         -0.5020    -2.5110     0.1280 ca         1 H8K      -0.077000
     26 C9           0.8300    -2.2220    -0.2320 ca         1 H8K      -0.113000
     27 H4           9.1610     1.6800     1.1920 ho         1 H8K       0.441000
     28 H1           7.5070     0.1650     1.6230 h1         1 H8K       0.026700
     29 H11          6.9000     2.5780     1.5010 hc         1 H8K       0.049950
     30 H12          6.7240     2.4790    -0.2500 hc         1 H8K       0.049950
     31 H9           5.0150     0.9970     1.8430 hc         1 H8K       0.044700
     32 H10          4.4930     2.3440     0.8360 hc         1 H8K       0.044700
     33 H2           4.7830     0.9900    -1.2230 h1         1 H8K       0.058700
     34 H8           5.5670    -1.3400     0.6390 hc         1 H8K       0.044700
     35 H7           5.4060    -1.4310    -1.1120 hc         1 H8K       0.044700
     36 H6           7.2830     0.1470    -1.4440 hc         1 H8K       0.049950
     37 H5           7.8030    -1.1980    -0.4330 hc         1 H8K       0.049950
     38 H13          3.2610    -0.5290     0.8010 hn         1 H8K       0.414000
     39 H15          2.6250    -0.0370    -2.0470 h1         1 H8K       0.035700
     40 H14          3.1270    -1.5940    -1.3710 h1         1 H8K       0.035700
     41 H23          0.4470     1.0310    -1.2860 ha         1 H8K       0.126000
     42 H19         -2.2490     1.6030    -0.0020 hc         1 H8K       0.063200
     43 H18         -2.5730     1.0280    -1.6600 hc         1 H8K       0.063200
     44 H22         -7.6170    -0.2490     0.7270 ha         1 H8K       0.140000
     45 H21         -8.6300     2.2080     0.0710 h4         1 H8K       0.057100
     46 H20         -4.5560     2.4380    -0.8040 h4         1 H8K       0.061100
     47 H3          -5.7870    -2.0450     0.9940 hn         1 H8K       0.371000
     48 H17         -0.7800    -3.4860     0.5220 ha         1 H8K       0.125000
     49 H16          1.5930    -2.9880    -0.1130 ha         1 H8K       0.110000
@<TRIPOS>BOND
     1     1     2 1   
     2     1    27 1   
     3     2     3 1   
     4     2     7 1   
     5     2    28 1   
     6     3     4 1   
     7     3    29 1   
     8     3    30 1   
     9     4     5 1   
    10     4    31 1   
    11     4    32 1   
    12     5     6 1   
    13     5     8 1   
    14     5    33 1   
    15     6     7 1   
    16     6    34 1   
    17     6    35 1   
    18     7    36 1   
    19     7    37 1   
    20     8     9 1   
    21     8    38 1   
    22     9    10 1   
    23     9    39 1   
    24     9    40 1   
    25    10    11 ar  
    26    10    26 ar  
    27    11    12 ar  
    28    11    41 1   
    29    12    13 1   
    30    12    24 ar  
    31    13    14 1   
    32    13    42 1   
    33    13    43 1   
    34    14    15 2   
    35    14    23 1   
    36    15    16 1   
    37    15    21 1   
    38    16    17 1   
    39    16    20 2   
    40    17    18 2   
    41    17    44 1   
    42    18    19 1   
    43    18    45 1   
    44    19    20 1   
    45    20    46 1   
    46    21    22 1   
    47    21    47 1   
    48    22    23 2   
    49    23    24 1   
    50    24    25 ar  
    51    25    26 ar  
    52    25    48 1   
    53    26    49 1   
@<TRIPOS>SUBSTRUCTURE
     1 H8K         1 TEMP              0 ****  ****    0 ROOT
