@<TRIPOS>MOLECULE
H8M
   49    52     1     0     0
SMALL
No Charge or Current Charge


@<TRIPOS>ATOM
      1 CAA          6.5840     1.9240     0.8320 c3         1 H8M       0.144900
      2 CAB          6.1980    -1.5710    -1.2160 c3         1 H8M       0.147900
      3 CAE          2.3690     1.7480     0.0950 ca         1 H8M      -0.077000
      4 CAF          3.7480     1.7980     0.3320 ca         1 H8M      -0.193000
      5 CAG         -6.4670     1.1910    -0.8270 ca         1 H8M      -0.091000
      6 CAH         -5.1790     1.7330    -1.0290 ca         1 H8M      -0.128000
      7 CAI         -5.5150    -0.6310     0.5050 ca         1 H8M      -0.059000
      8 CAJ         -1.0560    -1.4950     2.0320 c6         1 H8M       0.162800
      9 CAK         -2.5230    -1.6740     1.5530 c6         1 H8M       0.001800
     10 CAL          0.2810     0.6790    -0.8280 c3         1 H8M      -0.021100
     11 CAQ         -6.6410     0.0110    -0.0600 ca         1 H8M      -0.109300
     12 CAR          1.7990     0.6710    -0.6040 ca         1 H8M      -0.107300
     13 CAS          2.6420    -0.3680    -1.0690 ca         1 H8M       0.142000
     14 CAT          4.6020     0.7700    -0.1250 ca         1 H8M       0.131100
     15 CAU         -2.9570    -0.4870     0.7260 cc         1 H8M      -0.118400
     16 CAV          4.0390    -0.3340    -0.8390 ca         1 H8M       0.067100
     17 CAW         -2.0480     0.4280     0.2040 cd         1 H8M      -0.072300
     18 CAX         -4.0860     1.0730    -0.4530 ca         1 H8M      -0.045200
     19 CAY         -4.2530    -0.0640     0.2840 ca         1 H8M      -0.086800
     20 CAZ         -0.5450     0.3420     0.4480 c6         1 H8M       0.245700
     21 NAM         -0.1750    -1.0130     0.9380 n7         1 H8M      -0.857400
     22 NAN         -2.7490     1.4230    -0.5240 na         1 H8M      -0.220700
     23 OAO          5.9640     0.8380     0.1190 os         1 H8M      -0.323100
     24 OAP          4.7740    -1.4100    -1.3400 os         1 H8M      -0.333100
     25 H1           6.4180     2.8770     0.3130 h1         1 H8M       0.043033
     26 H2           6.1860     2.0000     1.8510 h1         1 H8M       0.043033
     27 H3           7.6670     1.7610     0.9020 h1         1 H8M       0.043033
     28 H4           6.7310    -0.7450    -1.7040 h1         1 H8M       0.038367
     29 H5           6.4970    -1.6230    -0.1620 h1         1 H8M       0.038367
     30 H6           6.5150    -2.5040    -1.6990 h1         1 H8M       0.038367
     31 H7          -8.7910     0.2260     0.1870 hc         1 H8M       0.037700
     32 H8          -8.3000    -1.2450    -0.6710 hc         1 H8M       0.037700
     33 H9          -8.0980    -1.1300     1.0860 hc         1 H8M       0.037700
     34 H10          1.7360     2.5550     0.4590 ha         1 H8M       0.113000
     35 H11          4.1340     2.6540     0.8780 ha         1 H8M       0.122000
     36 H12         -7.3300     1.6860    -1.2670 ha         1 H8M       0.107000
     37 H13         -5.0420     2.6380    -1.6170 ha         1 H8M       0.111000
     38 H14         -5.6210    -1.5390     1.0940 ha         1 H8M       0.112000
     39 H15         -1.0280    -0.7730     2.8610 h1         1 H8M       0.032700
     40 H16         -0.6790    -2.4540     2.4160 h1         1 H8M       0.032700
     41 H17         -2.5980    -2.5910     0.9540 hc         1 H8M       0.052200
     42 H18         -3.1810    -1.8140     2.4210 hc         1 H8M       0.052200
     43 H19         -0.0060     1.6780    -1.1770 hc         1 H8M       0.061200
     44 H20         -0.0170     0.0090    -1.6410 hc         1 H8M       0.061200
     45 H21         -0.2810     1.0730     1.2260 h1         1 H8M       0.024700
     46 H22          0.7940    -0.9760     1.2720 hn         1 H8M       0.422000
     47 H24         -2.3530     2.2270    -0.9990 hn         1 H8M       0.346000
     48 ClAD         1.9620    -1.7490    -1.9510 cl         1 H8M      -0.168000
     49 CAC         -8.0330    -0.5660     0.1470 c3         1 H8M      -0.039800
@<TRIPOS>BOND
     1     1    23 1   
     2     1    25 1   
     3     1    26 1   
     4     1    27 1   
     5     2    24 1   
     6     2    28 1   
     7     2    29 1   
     8     2    30 1   
     9     3     4 ar  
    10     3    12 ar  
    11     3    34 1   
    12     4    14 ar  
    13     4    35 1   
    14     5     6 ar  
    15     5    11 ar  
    16     5    36 1   
    17     6    18 ar  
    18     6    37 1   
    19     7    11 ar  
    20     7    19 ar  
    21     7    38 1   
    22     8     9 1   
    23     8    21 1   
    24     8    39 1   
    25     8    40 1   
    26     9    15 1   
    27     9    41 1   
    28     9    42 1   
    29    10    12 1   
    30    10    20 1   
    31    10    43 1   
    32    10    44 1   
    33    11    49 1   
    34    12    13 ar  
    35    13    16 ar  
    36    13    48 1   
    37    14    16 ar  
    38    14    23 1   
    39    15    17 2   
    40    15    19 1   
    41    16    24 1   
    42    17    20 1   
    43    17    22 1   
    44    18    19 ar  
    45    18    22 1   
    46    20    21 1   
    47    20    45 1   
    48    21    46 1   
    49    22    47 1   
    50    31    49 1   
    51    32    49 1   
    52    33    49 1   
@<TRIPOS>SUBSTRUCTURE
     1 H8M         1 TEMP              0 ****  ****    0 ROOT
