@<TRIPOS>MOLECULE
H8M
   49    52     1     0     0
SMALL
bcc


@<TRIPOS>ATOM
      1 CAA          6.5200     1.7850     1.0840 c3         1 H8M       0.121700
      2 CAB          5.4820    -1.4320    -1.9080 c3         1 H8M       0.124700
      3 CAE          2.4200     1.7630     0.1770 ca         1 H8M      -0.095000
      4 CAF          3.7690     1.8160     0.4940 ca         1 H8M      -0.211000
      5 CAG         -6.2500     1.1340    -0.9840 ca         1 H8M      -0.109000
      6 CAH         -4.9910     1.6850    -1.1280 ca         1 H8M      -0.146000
      7 CAI         -5.4060    -0.6760     0.3680 ca         1 H8M      -0.077000
      8 CAJ         -1.0400    -1.3080     2.2040 c6         1 H8M       0.162800
      9 CAK         -2.4130    -1.6470     1.6320 c6         1 H8M       0.001800
     10 CAL          0.3550     0.6590    -0.6990 c3         1 H8M      -0.021100
     11 CAQ         -6.4760    -0.0430    -0.2410 ca         1 H8M      -0.109300
     12 CAR          1.8310     0.6540    -0.4170 ca         1 H8M      -0.107300
     13 CAS          2.6750    -0.4230    -0.6960 ca         1 H8M       0.050400
     14 CAT          4.5900     0.7310     0.2080 ca         1 H8M       0.131100
     15 CAU         -2.8300    -0.5300     0.7360 cc         1 H8M      -0.118400
     16 CAV          4.0320    -0.4060    -0.3930 ca         1 H8M       0.067100
     17 CAW         -1.9410     0.4000     0.2790 cd         1 H8M      -0.072300
     18 CAX         -3.9260     1.0350    -0.5080 ca         1 H8M      -0.045200
     19 CAY         -4.1160    -0.1460     0.2420 ca         1 H8M      -0.086800
     20 CAZ         -0.4750     0.3990     0.5670 c6         1 H8M       0.245700
     21 NAM         -0.1450    -0.8980     1.1310 n7         1 H8M      -0.802200
     22 NAN         -2.5940     1.3420    -0.4690 na         1 H8M      -0.170400
     23 OAO          5.9050     0.6690     0.4680 os         1 H8M      -0.299900
     24 OAP          4.8110    -1.4810    -0.6530 os         1 H8M      -0.309900
     25 H1           6.4520     2.6820     0.4640 h1         1 H8M       0.043033
     26 H2           6.0870     1.9990     2.0640 h1         1 H8M       0.043033
     27 H3           7.5670     1.5260     1.2120 h1         1 H8M       0.043033
     28 H4           4.7760    -1.3570    -2.7370 h1         1 H8M       0.038367
     29 H5           6.1810    -0.5950    -1.9600 h1         1 H8M       0.038367
     30 H6           6.0390    -2.3620    -2.0060 h1         1 H8M       0.038367
     31 H7          -8.5570     0.1540     0.2870 hc         1 H8M       0.037700
     32 H8          -8.2700    -0.8860    -1.0960 hc         1 H8M       0.037700
     33 H9          -7.9030    -1.4640     0.5250 hc         1 H8M       0.037700
     34 H10          1.8000     2.6220     0.4050 ha         1 H8M       0.131000
     35 H11          4.1620     2.7110     0.9540 ha         1 H8M       0.140000
     36 H12         -7.0930     1.6240    -1.4570 ha         1 H8M       0.125000
     37 H13         -4.8430     2.5910    -1.7020 ha         1 H8M       0.129000
     38 H14         -5.5680    -1.5810     0.9440 ha         1 H8M       0.130000
     39 H15         -1.1580    -0.5290     2.9740 h1         1 H8M       0.032700
     40 H16         -0.6060    -2.1800     2.6940 h1         1 H8M       0.032700
     41 H17         -2.3710    -2.5990     1.0910 hc         1 H8M       0.052200
     42 H18         -3.1290    -1.7830     2.4470 hc         1 H8M       0.052200
     43 H19          0.0900     1.6410    -1.0980 hc         1 H8M       0.061200
     44 H20          0.0900    -0.0780    -1.4570 hc         1 H8M       0.061200
     45 H21         -0.2690     1.2220     1.2760 h1         1 H8M       0.024700
     46 H22          0.8050    -0.8720     1.4770 hn         1 H8M       0.366800
     47 H24         -2.1710     2.1430    -0.9060 hn         1 H8M       0.295700
     48 CLAD         2.0610    -1.8630    -1.4350 cl         1 H8M      -0.076400
     49 CAC         -7.8710    -0.5900    -0.1230 c3         1 H8M      -0.039800
@<TRIPOS>BOND
     1     1    23 1   
     2     1    25 1   
     3     1    26 1   
     4     1    27 1   
     5     2    24 1   
     6     2    28 1   
     7     2    29 1   
     8     2    30 1   
     9     3     4 ar  
    10     3    12 ar  
    11     3    34 1   
    12     4    14 ar  
    13     4    35 1   
    14     5     6 ar  
    15     5    11 ar  
    16     5    36 1   
    17     6    18 ar  
    18     6    37 1   
    19     7    11 ar  
    20     7    19 ar  
    21     7    38 1   
    22     8     9 1   
    23     8    21 1   
    24     8    39 1   
    25     8    40 1   
    26     9    15 1   
    27     9    41 1   
    28     9    42 1   
    29    10    12 1   
    30    10    20 1   
    31    10    43 1   
    32    10    44 1   
    33    11    49 1   
    34    12    13 ar  
    35    13    16 ar  
    36    13    48 1   
    37    14    16 ar  
    38    14    23 1   
    39    15    17 2   
    40    15    19 1   
    41    16    24 1   
    42    17    20 1   
    43    17    22 1   
    44    18    19 ar  
    45    18    22 1   
    46    20    21 1   
    47    20    45 1   
    48    21    46 1   
    49    22    47 1   
    50    31    49 1   
    51    32    49 1   
    52    33    49 1   
@<TRIPOS>SUBSTRUCTURE
     1 H8M         1 TEMP              0 ****  ****    0 ROOT
