@<TRIPOS>MOLECULE
H8N
   14    14     1     0     0
SMALL
No Charge or Current Charge


@<TRIPOS>ATOM
      1 NAA         -3.6320     0.0500    -0.1300 n1         1 H8N      -0.458000
      2 CAC         -2.4660     0.0100    -0.0810 cg         1 H8N       0.329000
      3 CAI         -1.0320    -0.0260    -0.0190 ca         1 H8N      -0.064000
      4 CAF         -0.2960     1.1730     0.0590 ca         1 H8N      -0.029000
      5 CAD          1.1090     1.1350     0.1200 ca         1 H8N      -0.185500
      6 CAH          1.7800    -0.0990     0.1030 ca         1 H8N       0.166100
      7 OAB          3.1400    -0.1440     0.1620 oh         1 H8N      -0.525100
      8 CAE          1.0500    -1.2940     0.0260 ca         1 H8N      -0.185500
      9 CAG         -0.3540    -1.2620    -0.0350 ca         1 H8N      -0.029000
     10 H1          -0.8100     2.1320     0.0730 ha         1 H8N       0.126500
     11 H2           1.6670     2.0670     0.1800 ha         1 H8N       0.128000
     12 H3           3.4790     0.7760     0.2110 ho         1 H8N       0.472000
     13 H4           1.5720    -2.2470     0.0130 ha         1 H8N       0.128000
     14 H5          -0.9130    -2.1940    -0.0950 ha         1 H8N       0.126500
@<TRIPOS>BOND
     1     1     2 3   
     2     2     3 1   
     3     3     4 ar  
     4     3     9 ar  
     5     4     5 ar  
     6     4    10 1   
     7     5     6 ar  
     8     5    11 1   
     9     6     7 1   
    10     6     8 ar  
    11     7    12 1   
    12     8     9 ar  
    13     8    13 1   
    14     9    14 1   
@<TRIPOS>SUBSTRUCTURE
     1 H8N         1 TEMP              0 ****  ****    0 ROOT
