@<TRIPOS>MOLECULE
H8N
   14    14     1     0     0
SMALL
abcg2


@<TRIPOS>ATOM
      1 NAA         -3.5910     0.0290    -0.1200 n1         1 H8N      -0.458000
      2 CAC         -2.4380     0.0070    -0.0790 cg         1 H8N       0.329000
      3 CAI         -1.0160    -0.0220    -0.0200 ca         1 H8N      -0.064000
      4 CAF         -0.2940     1.1700     0.0560 ca         1 H8N      -0.029000
      5 CAD          1.0850     1.1420     0.1170 ca         1 H8N      -0.185500
      6 CAH          1.7610    -0.0790     0.1010 ca         1 H8N       0.166100
      7 OAB          3.0940    -0.1650     0.1580 oh         1 H8N      -0.525100
      8 CAE          1.0390    -1.2730     0.0250 ca         1 H8N      -0.185500
      9 CAG         -0.3380    -1.2440    -0.0350 ca         1 H8N      -0.029000
     10 H1          -0.8120     2.1190     0.0680 ha         1 H8N       0.126500
     11 H2           1.6370     2.0720     0.1770 ha         1 H8N       0.128000
     12 H3           3.4930     0.7110     0.2210 ho         1 H8N       0.472000
     13 H4           1.5650    -2.2190     0.0130 ha         1 H8N       0.128000
     14 H5          -0.8920    -2.1710    -0.0950 ha         1 H8N       0.126500
@<TRIPOS>BOND
     1     1     2 3   
     2     2     3 1   
     3     3     4 ar  
     4     3     9 ar  
     5     4     5 ar  
     6     4    10 1   
     7     5     6 ar  
     8     5    11 1   
     9     6     7 1   
    10     6     8 ar  
    11     7    12 1   
    12     8     9 ar  
    13     8    13 1   
    14     9    14 1   
@<TRIPOS>SUBSTRUCTURE
     1 H8N         1 TEMP              0 ****  ****    0 ROOT
