@<TRIPOS>MOLECULE
H8O
   42    44     1     0     0
SMALL
No Charge or Current Charge


@<TRIPOS>ATOM
      1 FAE        -28.9570     1.4400    -8.1850 f          1 H8O      -0.107000
      2 CAZ        -30.2750     1.1370    -8.2310 c3         1 H8O       0.371300
      3 FAF        -30.5440     0.4650    -7.0870 f          1 H8O      -0.107000
      4 FAG        -30.4470     0.2470    -9.2360 f          1 H8O      -0.107000
      5 CAT        -31.1510     2.3910    -8.4130 ca         1 H8O      -0.164300
      6 CAI        -32.1060     2.7250    -7.4270 ca         1 H8O      -0.044000
      7 CAH        -32.9100     3.8600    -7.5690 ca         1 H8O      -0.108000
      8 CAJ        -32.7800     4.6800    -8.6940 ca         1 H8O      -0.074000
      9 CAU        -31.8360     4.3730    -9.7020 ca         1 H8O      -0.063000
     10 CAV        -31.0090     3.2180    -9.5610 ca         1 H8O       0.296000
     11 NAP        -30.0890     2.8990   -10.5010 nb         1 H8O      -0.618000
     12 CAR        -29.9360     3.6790   -11.5970 ca         1 H8O       0.270300
     13 CAY        -28.8720     3.2790   -12.6390 c3         1 H8O       0.265700
     14 FAC        -29.4260     3.0560   -13.8540 f          1 H8O      -0.101000
     15 FAD        -27.9490     4.2550   -12.8050 f          1 H8O      -0.101000
     16 FAB        -28.1910     2.1540   -12.3110 f          1 H8O      -0.101000
     17 CAK        -30.7150     4.8270   -11.8000 ca         1 H8O      -0.102000
     18 CAS        -31.6930     5.1980   -10.8540 ca         1 H8O      -0.035300
     19 CAW        -32.5510     6.4630   -11.0720 c3         1 H8O       0.221600
     20 OAA        -32.5490     6.8790   -12.4400 oh         1 H8O      -0.645000
     21 CAX        -32.0570     7.6790   -10.2140 c6         1 H8O       0.136500
     22 CAO        -33.2150     8.6780    -9.9260 c6         1 H8O      -0.076400
     23 CAM        -32.7090     9.9230    -9.1610 c6         1 H8O      -0.073400
     24 CAL        -31.5380    10.5800    -9.9280 c6         1 H8O      -0.078400
     25 CAN        -30.4190     9.5510   -10.2070 c6         1 H8O       0.159800
     26 NAQ        -30.9370     8.3670   -10.9330 n7         1 H8O      -0.854400
     27 H1         -32.2360     2.1100    -6.5380 ha         1 H8O       0.140000
     28 H2         -33.6400     4.1060    -6.8000 ha         1 H8O       0.127000
     29 H3         -33.4240     5.5510    -8.7570 ha         1 H8O       0.122000
     30 H4         -30.5480     5.4180   -12.6970 ha         1 H8O       0.166000
     31 H5         -33.5820     6.2250   -10.7810 h1         1 H8O       0.040700
     32 H6         -31.9820     7.6890   -12.3930 ho         1 H8O       0.460000
     33 H7         -31.6820     7.3000    -9.2510 h1         1 H8O       0.025700
     34 H8         -33.6810     8.9940   -10.8690 hc         1 H8O       0.043700
     35 H9         -34.0010     8.1810    -9.3410 hc         1 H8O       0.043700
     36 H10        -33.5270    10.6450    -9.0300 hc         1 H8O       0.042200
     37 H11        -32.3780     9.6330    -8.1550 hc         1 H8O       0.042200
     38 H12        -31.1340    11.4220    -9.3510 hc         1 H8O       0.050200
     39 H13        -31.9000    10.9950   -10.8790 hc         1 H8O       0.050200
     40 H14        -29.9760     9.2270    -9.2530 h1         1 H8O       0.033200
     41 H15        -29.6220    10.0230   -10.8000 h1         1 H8O       0.033200
     42 H16        -30.1570     7.7020   -11.0340 hn         1 H8O       0.418000
@<TRIPOS>BOND
     1     1     2 1   
     2     2     3 1   
     3     2     4 1   
     4     2     5 1   
     5     5     6 ar  
     6     5    10 ar  
     7     6     7 ar  
     8     6    27 1   
     9     7     8 ar  
    10     7    28 1   
    11     8     9 ar  
    12     8    29 1   
    13     9    10 ar  
    14     9    18 ar  
    15    10    11 ar  
    16    11    12 ar  
    17    12    13 1   
    18    12    17 ar  
    19    13    14 1   
    20    13    15 1   
    21    13    16 1   
    22    17    18 ar  
    23    17    30 1   
    24    18    19 1   
    25    19    20 1   
    26    19    21 1   
    27    19    31 1   
    28    20    32 1   
    29    21    22 1   
    30    21    26 1   
    31    21    33 1   
    32    22    23 1   
    33    22    34 1   
    34    22    35 1   
    35    23    24 1   
    36    23    36 1   
    37    23    37 1   
    38    24    25 1   
    39    24    38 1   
    40    24    39 1   
    41    25    26 1   
    42    25    40 1   
    43    25    41 1   
    44    26    42 1   
@<TRIPOS>SUBSTRUCTURE
     1 H8O         1 TEMP              0 ****  ****    0 ROOT
