@<TRIPOS>MOLECULE
H8O
   42    44     1     0     0
SMALL
abcg2


@<TRIPOS>ATOM
      1 FAE        -28.8800     1.6630    -8.2620 f          1 H8O      -0.107000
      2 CAZ        -30.1680     1.3080    -8.3270 c3         1 H8O       0.371300
      3 FAF        -30.4190     0.5870    -7.2280 f          1 H8O      -0.107000
      4 FAG        -30.3010     0.4760    -9.3660 f          1 H8O      -0.107000
      5 CAT        -31.0800     2.4940    -8.4320 ca         1 H8O      -0.164300
      6 CAI        -31.9970     2.7580    -7.4520 ca         1 H8O      -0.044000
      7 CAH        -32.8630     3.8610    -7.5680 ca         1 H8O      -0.108000
      8 CAJ        -32.8090     4.6800    -8.6590 ca         1 H8O      -0.074000
      9 CAU        -31.8700     4.4470    -9.6920 ca         1 H8O      -0.063000
     10 CAV        -30.9900     3.3420    -9.5690 ca         1 H8O       0.296000
     11 NAP        -30.0610     3.0540   -10.5010 nb         1 H8O      -0.618000
     12 CAR        -29.9900     3.8130   -11.5510 ca         1 H8O       0.270300
     13 CAY        -28.9600     3.4270   -12.5830 c3         1 H8O       0.265700
     14 FAC        -29.5500     2.8410   -13.6340 f          1 H8O      -0.101000
     15 FAD        -28.3120     4.5020   -13.0430 f          1 H8O      -0.101000
     16 FAB        -28.0540     2.5800   -12.1080 f          1 H8O      -0.101000
     17 CAK        -30.8200     4.9200   -11.7940 ca         1 H8O      -0.102000
     18 CAS        -31.7650     5.2540   -10.8600 ca         1 H8O      -0.035300
     19 CAW        -32.6470     6.4620   -11.0560 c3         1 H8O       0.221600
     20 OAA        -32.7040     6.7300   -12.4300 oh         1 H8O      -0.645000
     21 CAX        -32.1290     7.6520   -10.2150 c6         1 H8O       0.136500
     22 CAO        -33.1360     8.7990   -10.2050 c6         1 H8O      -0.076400
     23 CAM        -32.6130     9.9610    -9.3690 c6         1 H8O      -0.073400
     24 CAL        -31.2340    10.3830    -9.8590 c6         1 H8O      -0.078400
     25 CAN        -30.2970     9.1870    -9.8810 c6         1 H8O       0.159800
     26 NAQ        -30.8500     8.1240   -10.7070 n7         1 H8O      -0.854400
     27 H1         -32.0780     2.1260    -6.5790 ha         1 H8O       0.140000
     28 H2         -33.5840     4.0510    -6.7850 ha         1 H8O       0.127000
     29 H3         -33.4980     5.5100    -8.7250 ha         1 H8O       0.122000
     30 H4         -30.7130     5.4970   -12.7010 ha         1 H8O       0.166000
     31 H5         -33.6490     6.2250   -10.6730 h1         1 H8O       0.040700
     32 H6         -33.2230     7.5280   -12.5710 ho         1 H8O       0.460000
     33 H7         -32.0570     7.2910    -9.1740 h1         1 H8O       0.025700
     34 H8         -33.3200     9.1540   -11.2260 hc         1 H8O       0.043700
     35 H9         -34.0890     8.4380    -9.8110 hc         1 H8O       0.043700
     36 H10        -33.3120    10.7990    -9.4050 hc         1 H8O       0.042200
     37 H11        -32.5470     9.6490    -8.3220 hc         1 H8O       0.042200
     38 H12        -30.8170    11.1640    -9.2180 hc         1 H8O       0.050200
     39 H13        -31.3120    10.8000   -10.8670 hc         1 H8O       0.050200
     40 H14        -30.1200     8.8570    -8.8440 h1         1 H8O       0.033200
     41 H15        -29.3270     9.4720   -10.2930 h1         1 H8O       0.033200
     42 H16        -30.1860     7.3590   -10.7290 hn         1 H8O       0.418000
@<TRIPOS>BOND
     1     1     2 1   
     2     2     3 1   
     3     2     4 1   
     4     2     5 1   
     5     5     6 ar  
     6     5    10 ar  
     7     6     7 ar  
     8     6    27 1   
     9     7     8 ar  
    10     7    28 1   
    11     8     9 ar  
    12     8    29 1   
    13     9    10 ar  
    14     9    18 ar  
    15    10    11 ar  
    16    11    12 ar  
    17    12    13 1   
    18    12    17 ar  
    19    13    14 1   
    20    13    15 1   
    21    13    16 1   
    22    17    18 ar  
    23    17    30 1   
    24    18    19 1   
    25    19    20 1   
    26    19    21 1   
    27    19    31 1   
    28    20    32 1   
    29    21    22 1   
    30    21    26 1   
    31    21    33 1   
    32    22    23 1   
    33    22    34 1   
    34    22    35 1   
    35    23    24 1   
    36    23    36 1   
    37    23    37 1   
    38    24    25 1   
    39    24    38 1   
    40    24    39 1   
    41    25    26 1   
    42    25    40 1   
    43    25    41 1   
    44    26    42 1   
@<TRIPOS>SUBSTRUCTURE
     1 H8O         1 TEMP              0 ****  ****    0 ROOT
