@<TRIPOS>MOLECULE
H8Q
  140   147     1     0     0
SMALL
No Charge or Current Charge


@<TRIPOS>ATOM
      1 C2         267.6050   313.1460   280.4860 c3         1 H8Q       0.027700
      2 C3         267.0990   313.7090   281.8370 c3         1 H8Q      -0.023100
      3 C5         266.7960   316.1100   281.0470 ca         1 H8Q      -0.060000
      4 C6         267.1540   317.4690   281.0620 ca         1 H8Q      -0.194500
      5 C7         268.1160   317.9540   281.9700 ca         1 H8Q       0.339000
      6 C8         268.6980   317.0440   282.8770 ca         1 H8Q      -0.194500
      7 C9         268.3470   315.6830   282.8610 ca         1 H8Q      -0.060000
      8 O1         269.9290   313.3510   281.2300 o          1 H8Q      -0.588100
      9 C1         269.1330   313.3840   280.2980 c          1 H8Q       0.610100
     10 C11        267.6370   320.3700   281.3750 c3         1 H8Q       0.210100
     11 C12        269.8280   319.7530   282.4620 c3         1 H8Q       0.210100
     12 C14        270.8210   314.4980   278.8070 c6         1 H8Q       0.098000
     13 C15        270.6690   315.5850   277.7210 c6         1 H8Q      -0.181700
     14 C16        270.0880   314.9870   276.4280 c          1 H8Q       0.606100
     15 C17        268.8960   314.0340   276.5890 c6         1 H8Q      -0.186400
     16 C18        269.0620   313.0590   277.7900 c6         1 H8Q       0.049700
     17 C20        269.7260   316.7110   278.2470 c3         1 H8Q       0.065600
     18 C22        271.0850   319.1380   277.6220 c6         1 H8Q       0.051300
     19 C23        271.4000   320.3190   276.6580 c6         1 H8Q      -0.059700
     20 C24        270.3080   321.4170   276.8300 c6         1 H8Q      -0.106900
     21 C25        272.7550   320.9390   277.1060 c6         1 H8Q      -0.106900
     22 C26        270.9800   319.6970   279.0860 c6         1 H8Q       0.163800
     23 C27        270.2740   321.9000   278.3150 c6         1 H8Q       0.145300
     24 C28        272.6540   321.4140   278.5910 c6         1 H8Q       0.145300
     25 C30        269.8390   311.7410   277.4590 c          1 H8Q       0.591100
     26 C33        270.1750   309.9490   275.6800 c3         1 H8Q       0.107000
     27 C34        269.6590   309.7160   274.2250 c          1 H8Q       0.585100
     28 C35        269.9940   308.7140   276.5690 ca         1 H8Q      -0.091300
     29 C36        268.7070   308.2730   276.9360 ca         1 H8Q      -0.087500
     30 C37        268.5450   307.1540   277.7700 ca         1 H8Q      -0.119000
     31 C38        269.6710   306.4630   278.2440 ca         1 H8Q      -0.104000
     32 C39        270.9590   306.8930   277.8820 ca         1 H8Q      -0.119000
     33 C4         267.4010   315.2040   281.9370 ca         1 H8Q      -0.154300
     34 C40        271.1200   308.0150   277.0490 ca         1 H8Q      -0.087500
     35 C43        268.3160   310.8500   272.4610 c3         1 H8Q       0.183300
     36 C44        269.4210   310.8560   271.3800 c3         1 H8Q      -0.119100
     37 C45        267.2400   309.7340   272.2730 c3         1 H8Q       0.001700
     38 C46        266.4600   309.4290   273.5790 c          1 H8Q       0.589100
     39 C51        264.7510   311.1490   269.5390 ca         1 H8Q       0.194500
     40 C53        263.2510   312.3830   268.2130 ca         1 H8Q       0.301900
     41 C54        263.2440   311.4050   267.2100 ca         1 H8Q      -0.106000
     42 C55        264.0240   310.2500   267.3790 ca         1 H8Q      -0.119000
     43 C56        264.7910   310.1070   268.5520 ca         1 H8Q       0.129100
     44 C59        264.6510   310.1800   275.1590 c3         1 H8Q       0.052700
     45 C60        263.4080   311.1050   275.1150 c3         1 H8Q      -0.080400
     46 C61        263.7320   312.6160   275.1220 c3         1 H8Q      -0.095100
     47 C62        265.5160   310.3960   276.4480 c          1 H8Q       0.618100
     48 C65        265.8160   310.0220   278.9540 c5         1 H8Q       0.029700
     49 C66        264.8410   309.3430   279.9640 c5         1 H8Q      -0.085400
     50 C67        264.3080   308.1530   279.1350 c5         1 H8Q      -0.093400
     51 C68        263.9970   308.8210   277.7720 c5         1 H8Q       0.110000
     52 C69        266.0220   311.5210   279.3740 c          1 H8Q       0.601100
     53 N10        268.5000   319.3210   281.9670 nh         1 H8Q      -0.812400
     54 N13        269.5400   313.7850   279.0080 n          1 H8Q      -0.414800
     55 N29        271.2840   321.1640   279.1370 n3         1 H8Q      -0.680600
     56 N31        269.5310   311.1490   276.2590 ns         1 H8Q      -0.476900
     57 N48        266.3280   309.9730   271.1120 ns         1 H8Q      -0.512900
     58 N49        265.4720   310.3170   273.9380 ns         1 H8Q      -0.477900
     59 N52        263.9790   312.2660   269.3450 nb         1 H8Q      -0.602000
     60 N63        265.0790   309.8270   277.6700 n          1 H8Q      -0.391800
     61 N71        267.1540   311.7430   280.2170 n          1 H8Q      -0.404800
     62 O19        270.5520   315.2470   275.3260 o          1 H8Q      -0.497100
     63 O32        270.6350   311.2360   278.2390 o          1 H8Q      -0.605100
     64 O41        268.9200   310.7940   273.7750 os         1 H8Q      -0.425100
     65 O42        269.8870   308.7050   273.5730 o          1 H8Q      -0.483000
     66 O47        266.6500   308.4070   274.2230 o          1 H8Q      -0.615100
     67 O57        265.5430   308.9670   268.6880 oh         1 H8Q      -0.527100
     68 O58        265.5030   311.9990   271.6890 o          1 H8Q      -0.571100
     69 O64        266.5480   311.0620   276.4190 o          1 H8Q      -0.643100
     70 O70        265.3130   312.4500   279.0010 o          1 H8Q      -0.599100
     71 S21        269.6000   318.1530   277.0970 ss         1 H8Q      -0.441000
     72 H1         267.1560   313.7860   279.7180 h1         1 H8Q       0.091700
     73 H2         266.0180   313.5440   281.9120 hc         1 H8Q       0.060200
     74 H3         267.5560   313.1520   282.6650 hc         1 H8Q       0.060200
     75 H4         266.0610   315.7600   280.3230 ha         1 H8Q       0.115500
     76 H5         266.6890   318.1350   280.3430 ha         1 H8Q       0.112500
     77 H6         269.4320   317.3840   283.6000 ha         1 H8Q       0.112500
     78 H7         268.8320   314.9970   283.5540 ha         1 H8Q       0.115500
     79 H8         267.9100   321.3630   281.7570 h1         1 H8Q       0.036033
     80 H9         267.7380   320.3800   280.2820 h1         1 H8Q       0.036033
     81 H10        266.5840   320.1940   281.6340 h1         1 H8Q       0.036033
     82 H11        270.5980   319.0170   282.1930 h1         1 H8Q       0.036033
     83 H12        270.1210   320.7130   282.0160 h1         1 H8Q       0.036033
     84 H13        269.8140   319.8670   283.5540 h1         1 H8Q       0.036033
     85 H14        271.5990   313.7790   278.5100 h1         1 H8Q       0.073200
     86 H15        271.1540   314.9650   279.7460 h1         1 H8Q       0.073200
     87 H16        271.6400   316.0430   277.4930 hc         1 H8Q       0.079700
     88 H17        268.0510   314.6780   276.8670 hc         1 H8Q       0.082200
     89 H18        268.6430   313.5580   275.6330 hc         1 H8Q       0.082200
     90 H19        268.0500   312.6810   277.9760 h1         1 H8Q       0.091700
     91 H20        268.7180   316.3050   278.4060 h1         1 H8Q       0.080200
     92 H21        270.0850   317.0620   279.2230 h1         1 H8Q       0.080200
     93 H22        271.9360   318.4430   277.5860 h1         1 H8Q       0.061700
     94 H23        271.4540   319.9720   275.6170 hc         1 H8Q       0.074700
     95 H24        270.5170   322.2670   276.1660 hc         1 H8Q       0.052200
     96 H25        269.3220   321.0330   276.5370 hc         1 H8Q       0.052200
     97 H26        273.5650   320.2050   277.0010 hc         1 H8Q       0.052200
     98 H27        273.0180   321.7870   276.4590 hc         1 H8Q       0.052200
     99 H28        269.9670   319.5120   279.4710 h1         1 H8Q       0.059700
    100 H29        271.6690   319.1370   279.7350 h1         1 H8Q       0.059700
    101 H30        270.4670   322.9830   278.3500 h1         1 H8Q       0.052450
    102 H31        269.2630   321.7460   278.7230 h1         1 H8Q       0.052450
    103 H32        273.4070   320.8840   279.1940 h1         1 H8Q       0.052450
    104 H33        272.9000   322.4850   278.6480 h1         1 H8Q       0.052450
    105 H34        271.2460   310.1690   275.5800 h1         1 H8Q       0.103700
    106 H35        267.8290   308.7980   276.5750 ha         1 H8Q       0.127500
    107 H36        267.5460   306.8230   278.0470 ha         1 H8Q       0.114500
    108 H37        269.5470   305.5960   278.8900 ha         1 H8Q       0.112000
    109 H38        271.8330   306.3600   278.2500 ha         1 H8Q       0.114500
    110 H39        272.1230   308.3420   276.7830 ha         1 H8Q       0.127500
    111 H40        267.8110   311.8200   272.3890 h1         1 H8Q       0.100700
    112 H41        270.1980   311.5880   271.6270 hc         1 H8Q       0.054367
    113 H42        269.8890   309.8720   271.2670 hc         1 H8Q       0.054367
    114 H43        268.9940   311.1330   270.4090 hc         1 H8Q       0.054367
    115 H44        267.7810   308.8050   272.0550 h1         1 H8Q       0.106700
    116 H45        262.6560   313.2900   268.1080 h4         1 H8Q       0.031100
    117 H46        262.6420   311.5450   266.3170 ha         1 H8Q       0.131000
    118 H47        264.0270   309.4840   266.6080 ha         1 H8Q       0.140000
    119 H48        264.2890   309.1460   275.1710 h1         1 H8Q       0.066700
    120 H49        262.8220   310.8700   274.2180 hc         1 H8Q       0.052700
    121 H50        262.7630   310.8820   275.9730 hc         1 H8Q       0.052700
    122 H51        262.8070   313.2030   275.0740 hc         1 H8Q       0.045700
    123 H52        264.2640   312.9010   276.0380 hc         1 H8Q       0.045700
    124 H53        264.3530   312.8920   274.2610 hc         1 H8Q       0.045700
    125 H54        266.7800   309.5040   278.8950 h1         1 H8Q       0.079700
    126 H55        265.3270   309.0190   280.8900 hc         1 H8Q       0.063700
    127 H56        264.0220   310.0170   280.2470 hc         1 H8Q       0.063700
    128 H57        263.4240   307.6830   279.5810 hc         1 H8Q       0.060200
    129 H58        265.0720   307.3750   279.0260 hc         1 H8Q       0.060200
    130 H59        263.0130   309.3080   277.7800 h1         1 H8Q       0.054700
    131 H60        264.0190   308.0800   276.9620 h1         1 H8Q       0.054700
    132 H61        267.2860   309.9100   281.3050 h1         1 H8Q       0.051033
    133 H62        268.5590   310.1510   280.0680 h1         1 H8Q       0.051033
    134 H63        268.6100   311.0400   281.6110 h1         1 H8Q       0.051033
    135 H65        268.7560   311.5510   275.7390 hn         1 H8Q       0.354500
    136 H66        266.2960   309.2630   270.3840 hn         1 H8Q       0.325500
    137 H67        265.3470   311.1250   273.3320 hn         1 H8Q       0.357500
    138 H68        265.4180   308.4030   267.8920 ho         1 H8Q       0.482000
    139 C50        265.5500   311.0950   270.8610 c          1 H8Q       0.514600
    140 C72        267.9460   310.6450   280.8320 c3         1 H8Q       0.081300
@<TRIPOS>BOND
     1     1     2 1   
     2     1     9 1   
     3     1    61 1   
     4     1    72 1   
     5     2    33 1   
     6     2    73 1   
     7     2    74 1   
     8     3     4 ar  
     9     3    33 ar  
    10     3    75 1   
    11     4     5 ar  
    12     4    76 1   
    13     5     6 ar  
    14     5    53 1   
    15     6     7 ar  
    16     6    77 1   
    17     7    33 ar  
    18     7    78 1   
    19     8     9 2   
    20     9    54 1   
    21    10    53 1   
    22    10    79 1   
    23    10    80 1   
    24    10    81 1   
    25    11    53 1   
    26    11    82 1   
    27    11    83 1   
    28    11    84 1   
    29    12    13 1   
    30    12    54 1   
    31    12    85 1   
    32    12    86 1   
    33    13    14 1   
    34    13    17 1   
    35    13    87 1   
    36    14    15 1   
    37    14    62 2   
    38    15    16 1   
    39    15    88 1   
    40    15    89 1   
    41    16    25 1   
    42    16    54 1   
    43    16    90 1   
    44    17    71 1   
    45    17    91 1   
    46    17    92 1   
    47    18    19 1   
    48    18    22 1   
    49    18    71 1   
    50    18    93 1   
    51    19    20 1   
    52    19    21 1   
    53    19    94 1   
    54    20    23 1   
    55    20    95 1   
    56    20    96 1   
    57    21    24 1   
    58    21    97 1   
    59    21    98 1   
    60    22    55 1   
    61    22    99 1   
    62    22   100 1   
    63    23    55 1   
    64    23   101 1   
    65    23   102 1   
    66    24    55 1   
    67    24   103 1   
    68    24   104 1   
    69    25    56 1   
    70    25    63 2   
    71    26    27 1   
    72    26    28 1   
    73    26    56 1   
    74    26   105 1   
    75    27    64 1   
    76    27    65 2   
    77    28    29 ar  
    78    28    34 ar  
    79    29    30 ar  
    80    29   106 1   
    81    30    31 ar  
    82    30   107 1   
    83    31    32 ar  
    84    31   108 1   
    85    32    34 ar  
    86    32   109 1   
    87    34   110 1   
    88    35    36 1   
    89    35    37 1   
    90    35    64 1   
    91    35   111 1   
    92    36   112 1   
    93    36   113 1   
    94    36   114 1   
    95    37    38 1   
    96    37    57 1   
    97    37   115 1   
    98    38    58 1   
    99    38    66 2   
   100    39    43 ar  
   101    39    59 ar  
   102    39   139 1   
   103    40    41 ar  
   104    40    59 ar  
   105    40   116 1   
   106    41    42 ar  
   107    41   117 1   
   108    42    43 ar  
   109    42   118 1   
   110    43    67 1   
   111    44    45 1   
   112    44    47 1   
   113    44    58 1   
   114    44   119 1   
   115    45    46 1   
   116    45   120 1   
   117    45   121 1   
   118    46   122 1   
   119    46   123 1   
   120    46   124 1   
   121    47    60 1   
   122    47    69 2   
   123    48    49 1   
   124    48    52 1   
   125    48    60 1   
   126    48   125 1   
   127    49    50 1   
   128    49   126 1   
   129    49   127 1   
   130    50    51 1   
   131    50   128 1   
   132    50   129 1   
   133    51    60 1   
   134    51   130 1   
   135    51   131 1   
   136    52    61 1   
   137    52    70 2   
   138    56   135 1   
   139    57   136 1   
   140    57   139 1   
   141    58   137 1   
   142    61   140 1   
   143    67   138 1   
   144    68   139 2   
   145   132   140 1   
   146   133   140 1   
   147   134   140 1   
@<TRIPOS>SUBSTRUCTURE
     1 H8Q         1 TEMP              0 ****  ****    0 ROOT
