@<TRIPOS>MOLECULE
H8Q
  140   147     1     0     0
SMALL
abcg2


@<TRIPOS>ATOM
      1 C2         267.7170   312.9180   279.9990 c3         1 H8Q       0.027700
      2 C3         267.3300   313.2940   281.4370 c3         1 H8Q      -0.023100
      3 C5         266.6110   315.6800   281.0950 ca         1 H8Q      -0.060000
      4 C6         266.7600   317.0480   281.2450 ca         1 H8Q      -0.194500
      5 C7         267.8180   317.5840   282.0010 ca         1 H8Q       0.339000
      6 C8         268.7070   316.6650   282.5860 ca         1 H8Q      -0.194500
      7 C9         268.5380   315.2990   282.4230 ca         1 H8Q      -0.060000
      8 O1         270.0050   313.0550   280.6860 o          1 H8Q      -0.588100
      9 C1         269.2100   313.2020   279.7760 c          1 H8Q       0.610100
     10 C11        267.1450   319.8390   281.3980 c3         1 H8Q       0.210100
     11 C12        269.2140   319.4400   282.6980 c3         1 H8Q       0.210100
     12 C14        270.8630   314.4180   278.4690 c6         1 H8Q       0.098000
     13 C15        270.6390   315.8420   277.9420 c6         1 H8Q      -0.181700
     14 C16        269.8580   315.8150   276.6460 c          1 H8Q       0.606100
     15 C17        268.6040   314.9800   276.6950 c6         1 H8Q      -0.186400
     16 C18        268.8250   313.6140   277.3420 c6         1 H8Q       0.049700
     17 C20        269.9000   316.6660   279.0070 c3         1 H8Q       0.065600
     18 C22        271.0530   319.2280   278.6670 c6         1 H8Q       0.051300
     19 C23        271.8350   319.3190   277.3520 c6         1 H8Q      -0.059700
     20 C24        271.1210   320.2720   276.3940 c6         1 H8Q      -0.106900
     21 C25        273.2140   319.8940   277.6850 c6         1 H8Q      -0.106900
     22 C26        270.8160   320.6770   279.1680 c6         1 H8Q       0.163800
     23 C27        271.1120   321.6790   277.0380 c6         1 H8Q       0.145300
     24 C28        273.0050   321.2400   278.4200 c6         1 H8Q       0.145300
     25 C30        269.6000   312.6900   276.3960 c          1 H8Q       0.591100
     26 C33        269.9160   310.3480   275.7510 c3         1 H8Q       0.107000
     27 C34        269.3180   310.0160   274.3820 c          1 H8Q       0.585100
     28 C35        270.0060   309.1320   276.6440 ca         1 H8Q      -0.091300
     29 C36        268.8950   308.3240   276.8680 ca         1 H8Q      -0.087500
     30 C37        268.9580   307.2850   277.7850 ca         1 H8Q      -0.119000
     31 C38        270.1320   307.0410   278.4860 ca         1 H8Q      -0.104000
     32 C39        271.2450   307.8390   278.2620 ca         1 H8Q      -0.119000
     33 C4         267.4920   314.7700   281.6760 ca         1 H8Q      -0.154300
     34 C40        271.1790   308.8820   277.3460 ca         1 H8Q      -0.087500
     35 C43        267.9140   310.9530   272.6430 c3         1 H8Q       0.183300
     36 C44        268.9530   311.0050   271.5390 c3         1 H8Q      -0.119100
     37 C45        266.9310   309.7730   272.5010 c3         1 H8Q       0.001700
     38 C46        266.0600   309.5870   273.7530 c          1 H8Q       0.589100
     39 C51        264.7260   310.6340   269.5070 ca         1 H8Q       0.194500
     40 C53        262.7580   310.9130   268.3710 ca         1 H8Q       0.301900
     41 C54        263.3090   310.4040   267.1980 ca         1 H8Q      -0.106000
     42 C55        264.6290   310.0150   267.1990 ca         1 H8Q      -0.119000
     43 C56        265.3730   310.1240   268.3750 ca         1 H8Q       0.129100
     44 C59        264.4070   310.5120   275.2570 c3         1 H8Q       0.052700
     45 C60        263.4560   311.7140   275.3270 c3         1 H8Q      -0.080400
     46 C61        264.1310   313.0740   275.4590 c3         1 H8Q      -0.095100
     47 C62        265.3270   310.4830   276.4740 c          1 H8Q       0.618100
     48 C65        265.7420   309.9110   278.7690 c5         1 H8Q       0.029700
     49 C66        264.8850   309.2380   279.8500 c5         1 H8Q      -0.085400
     50 C67        263.9020   308.3900   279.0500 c5         1 H8Q      -0.093400
     51 C68        263.6000   309.2600   277.8390 c5         1 H8Q       0.110000
     52 C69        266.1260   311.3350   279.1600 c          1 H8Q       0.601100
     53 N10        267.9690   318.9380   282.1690 nh         1 H8Q      -0.812400
     54 N13        269.5890   313.7230   278.5770 n          1 H8Q      -0.414800
     55 N29        271.6010   321.6370   278.4120 n3         1 H8Q      -0.680600
     56 N31        269.2410   311.4010   276.4620 ns         1 H8Q      -0.476900
     57 N48        266.1730   309.8250   271.2600 ns         1 H8Q      -0.512900
     58 N49        265.2020   310.5670   274.0550 ns         1 H8Q      -0.477900
     59 N52        263.4560   311.0310   269.4820 nb         1 H8Q      -0.602000
     60 N63        264.8730   309.9310   277.6030 n          1 H8Q      -0.391800
     61 N71        267.3630   311.5450   279.6660 n          1 H8Q      -0.404800
     62 O19        270.1790   316.4540   275.6730 o          1 H8Q      -0.497100
     63 O32        270.5130   313.1180   275.7070 o          1 H8Q      -0.605100
     64 O41        268.4910   310.9540   273.9610 os         1 H8Q      -0.425100
     65 O42        269.6280   309.0260   273.7730 o          1 H8Q      -0.483000
     66 O47        266.1800   308.5790   274.4350 o          1 H8Q      -0.615100
     67 O57        266.6590   309.7490   268.3100 oh         1 H8Q      -0.527100
     68 O58        265.2350   311.8840   271.4520 o          1 H8Q      -0.571100
     69 O64        266.4420   310.9930   276.4230 o          1 H8Q      -0.643100
     70 O70        265.3120   312.2360   279.0280 o          1 H8Q      -0.599100
     71 S21        269.4580   318.3580   278.5500 ss         1 H8Q      -0.441000
     72 H1         267.1370   313.5670   279.3450 h1         1 H8Q       0.091700
     73 H2         266.2850   313.0070   281.5690 hc         1 H8Q       0.060200
     74 H3         267.9140   312.7160   282.1550 hc         1 H8Q       0.060200
     75 H4         265.7810   315.3140   280.5010 ha         1 H8Q       0.115500
     76 H5         266.0440   317.6960   280.7580 ha         1 H8Q       0.112500
     77 H6         269.5460   317.0070   283.1760 ha         1 H8Q       0.112500
     78 H7         269.2520   314.6320   282.8910 ha         1 H8Q       0.115500
     79 H8         267.3850   320.8630   281.6690 h1         1 H8Q       0.036033
     80 H9         267.2940   319.7300   280.3180 h1         1 H8Q       0.036033
     81 H10        266.0850   319.6900   281.6110 h1         1 H8Q       0.036033
     82 H11        270.0810   319.1600   282.0870 h1         1 H8Q       0.036033
     83 H12        269.1750   320.5260   282.7430 h1         1 H8Q       0.036033
     84 H13        269.3930   319.0830   283.7140 h1         1 H8Q       0.036033
     85 H14        271.5600   313.8810   277.8260 h1         1 H8Q       0.073200
     86 H15        271.3180   314.4670   279.4550 h1         1 H8Q       0.073200
     87 H16        271.6180   316.2880   277.7550 hc         1 H8Q       0.079700
     88 H17        267.8690   315.5230   277.3010 hc         1 H8Q       0.082200
     89 H18        268.1770   314.8690   275.6980 hc         1 H8Q       0.082200
     90 H19        267.8520   313.1740   277.5490 h1         1 H8Q       0.091700
     91 H20        268.9540   316.1950   279.2820 h1         1 H8Q       0.080200
     92 H21        270.5040   316.6940   279.9160 h1         1 H8Q       0.080200
     93 H22        271.6470   318.6750   279.4010 h1         1 H8Q       0.061700
     94 H23        271.9340   318.3340   276.8970 hc         1 H8Q       0.074700
     95 H24        271.6370   320.2840   275.4320 hc         1 H8Q       0.052200
     96 H25        270.1060   319.9160   276.2020 hc         1 H8Q       0.052200
     97 H26        273.7780   319.1930   278.3040 hc         1 H8Q       0.052200
     98 H27        273.7830   320.0310   276.7620 hc         1 H8Q       0.052200
     99 H28        269.7620   320.9590   279.0790 h1         1 H8Q       0.059700
    100 H29        271.0700   320.7500   280.2290 h1         1 H8Q       0.059700
    101 H30        271.7440   322.3710   276.4760 h1         1 H8Q       0.052450
    102 H31        270.1050   322.1010   277.0400 h1         1 H8Q       0.052450
    103 H32        273.3310   321.1700   279.4610 h1         1 H8Q       0.052450
    104 H33        273.5950   322.0350   277.9580 h1         1 H8Q       0.052450
    105 H34        270.9320   310.6940   275.5320 h1         1 H8Q       0.103700
    106 H35        267.9690   308.5000   276.3330 ha         1 H8Q       0.127500
    107 H36        268.0860   306.6660   277.9540 ha         1 H8Q       0.114500
    108 H37        270.1790   306.2320   279.2030 ha         1 H8Q       0.112000
    109 H38        272.1660   307.6540   278.8000 ha         1 H8Q       0.114500
    110 H39        272.0480   309.5080   277.1800 ha         1 H8Q       0.127500
    111 H40        267.3640   311.8920   272.6410 h1         1 H8Q       0.100700
    112 H41        269.7210   311.7380   271.7820 hc         1 H8Q       0.054367
    113 H42        269.4280   310.0440   271.3540 hc         1 H8Q       0.054367
    114 H43        268.4820   311.3380   270.6160 hc         1 H8Q       0.054367
    115 H44        267.5170   308.8580   272.4240 h1         1 H8Q       0.106700
    116 H45        261.7240   311.2370   268.4030 h4         1 H8Q       0.031100
    117 H46        262.7110   310.3270   266.3000 ha         1 H8Q       0.131000
    118 H47        265.1010   309.6310   266.3040 ha         1 H8Q       0.140000
    119 H48        263.7960   309.6050   275.2330 h1         1 H8Q       0.066700
    120 H49        262.8350   311.6900   274.4290 hc         1 H8Q       0.052700
    121 H50        262.7760   311.5590   276.1670 hc         1 H8Q       0.052700
    122 H51        263.3800   313.8620   275.4210 hc         1 H8Q       0.045700
    123 H52        264.6640   313.1740   276.4040 hc         1 H8Q       0.045700
    124 H53        264.8420   313.2680   274.6550 hc         1 H8Q       0.045700
    125 H54        266.6210   309.3070   278.5350 h1         1 H8Q       0.079700
    126 H55        265.4930   308.6570   280.5430 hc         1 H8Q       0.063700
    127 H56        264.3450   309.9900   280.4300 hc         1 H8Q       0.063700
    128 H57        263.0040   308.1390   279.6130 hc         1 H8Q       0.060200
    129 H58        264.3730   307.4590   278.7310 hc         1 H8Q       0.060200
    130 H59        262.8140   309.9880   278.0560 h1         1 H8Q       0.054700
    131 H60        263.2890   308.6740   276.9760 h1         1 H8Q       0.054700
    132 H61        267.7680   309.5430   280.1950 h1         1 H8Q       0.051033
    133 H62        269.0740   310.3450   279.3180 h1         1 H8Q       0.051033
    134 H63        268.7410   310.7360   281.0120 h1         1 H8Q       0.051033
    135 H65        268.3400   311.1680   276.8670 hn         1 H8Q       0.354500
    136 H66        266.0370   308.9250   270.8220 hn         1 H8Q       0.325500
    137 H67        265.1290   311.3690   273.4440 hn         1 H8Q       0.357500
    138 H68        267.1330   309.9020   269.1360 ho         1 H8Q       0.482000
    139 C50        265.3970   310.8460   270.8330 c          1 H8Q       0.514600
    140 C72        268.2830   310.4880   280.0570 c3         1 H8Q       0.081300
@<TRIPOS>BOND
     1     1     2 1   
     2     1     9 1   
     3     1    61 1   
     4     1    72 1   
     5     2    33 1   
     6     2    73 1   
     7     2    74 1   
     8     3     4 ar  
     9     3    33 ar  
    10     3    75 1   
    11     4     5 ar  
    12     4    76 1   
    13     5     6 ar  
    14     5    53 1   
    15     6     7 ar  
    16     6    77 1   
    17     7    33 ar  
    18     7    78 1   
    19     8     9 2   
    20     9    54 1   
    21    10    53 1   
    22    10    79 1   
    23    10    80 1   
    24    10    81 1   
    25    11    53 1   
    26    11    82 1   
    27    11    83 1   
    28    11    84 1   
    29    12    13 1   
    30    12    54 1   
    31    12    85 1   
    32    12    86 1   
    33    13    14 1   
    34    13    17 1   
    35    13    87 1   
    36    14    15 1   
    37    14    62 2   
    38    15    16 1   
    39    15    88 1   
    40    15    89 1   
    41    16    25 1   
    42    16    54 1   
    43    16    90 1   
    44    17    71 1   
    45    17    91 1   
    46    17    92 1   
    47    18    19 1   
    48    18    22 1   
    49    18    71 1   
    50    18    93 1   
    51    19    20 1   
    52    19    21 1   
    53    19    94 1   
    54    20    23 1   
    55    20    95 1   
    56    20    96 1   
    57    21    24 1   
    58    21    97 1   
    59    21    98 1   
    60    22    55 1   
    61    22    99 1   
    62    22   100 1   
    63    23    55 1   
    64    23   101 1   
    65    23   102 1   
    66    24    55 1   
    67    24   103 1   
    68    24   104 1   
    69    25    56 1   
    70    25    63 2   
    71    26    27 1   
    72    26    28 1   
    73    26    56 1   
    74    26   105 1   
    75    27    64 1   
    76    27    65 2   
    77    28    29 ar  
    78    28    34 ar  
    79    29    30 ar  
    80    29   106 1   
    81    30    31 ar  
    82    30   107 1   
    83    31    32 ar  
    84    31   108 1   
    85    32    34 ar  
    86    32   109 1   
    87    34   110 1   
    88    35    36 1   
    89    35    37 1   
    90    35    64 1   
    91    35   111 1   
    92    36   112 1   
    93    36   113 1   
    94    36   114 1   
    95    37    38 1   
    96    37    57 1   
    97    37   115 1   
    98    38    58 1   
    99    38    66 2   
   100    39    43 ar  
   101    39    59 ar  
   102    39   139 1   
   103    40    41 ar  
   104    40    59 ar  
   105    40   116 1   
   106    41    42 ar  
   107    41   117 1   
   108    42    43 ar  
   109    42   118 1   
   110    43    67 1   
   111    44    45 1   
   112    44    47 1   
   113    44    58 1   
   114    44   119 1   
   115    45    46 1   
   116    45   120 1   
   117    45   121 1   
   118    46   122 1   
   119    46   123 1   
   120    46   124 1   
   121    47    60 1   
   122    47    69 2   
   123    48    49 1   
   124    48    52 1   
   125    48    60 1   
   126    48   125 1   
   127    49    50 1   
   128    49   126 1   
   129    49   127 1   
   130    50    51 1   
   131    50   128 1   
   132    50   129 1   
   133    51    60 1   
   134    51   130 1   
   135    51   131 1   
   136    52    61 1   
   137    52    70 2   
   138    56   135 1   
   139    57   136 1   
   140    57   139 1   
   141    58   137 1   
   142    61   140 1   
   143    67   138 1   
   144    68   139 2   
   145   132   140 1   
   146   133   140 1   
   147   134   140 1   
@<TRIPOS>SUBSTRUCTURE
     1 H8Q         1 TEMP              0 ****  ****    0 ROOT
