@<TRIPOS>MOLECULE
H8R
   55    55     1     0     0
SMALL
No Charge or Current Charge


@<TRIPOS>ATOM
      1 CG2         -5.6970     2.3650     1.4490 c3         1 H8R      -0.076100
      2 CB          -6.3460     1.0510     0.9500 c3         1 H8R      -0.047700
      3 CG1         -7.8850     1.1810     0.8820 c3         1 H8R      -0.076100
      4 CA          -5.7400     0.5250    -0.3890 c3         1 H8R      -0.035300
      5 C           -6.0240     1.4610    -1.6110 c          1 H8R       0.720000
      6 O           -5.2260     2.3570    -1.8620 o          1 H8R      -0.725000
      7 OXT         -6.9390     1.1590    -2.3650 o          1 H8R      -0.725000
      8 N           -4.2850     0.2520    -0.2760 ns         1 H8R      -0.454900
      9 CAQ         -3.7180    -0.8410     0.3480 c          1 H8R       0.607700
     10 OAR         -4.4080    -1.7280     0.8350 o          1 H8R      -0.609100
     11 CAP         -2.2040    -0.8850     0.3930 ca         1 H8R      -0.153600
     12 CAA         -1.5600    -1.9850     1.0030 ca         1 H8R      -0.041000
     13 CAB         -0.1580    -2.0540     1.0620 ca         1 H8R      -0.191000
     14 CAO         -1.4020     0.1460    -0.1560 ca         1 H8R      -0.041000
     15 CAN          0.0010     0.0730    -0.0950 ca         1 H8R      -0.191000
     16 CAC          0.6290    -1.0320     0.5160 ca         1 H8R       0.139100
     17 OAD          2.0000    -1.1550     0.6040 os         1 H8R      -0.355100
     18 CAE          2.8930    -0.1610     0.0750 c3         1 H8R       0.168600
     19 CAF          4.3340    -0.6300     0.3530 c3         1 H8R      -0.081400
     20 CAG          5.4010     0.3580    -0.1690 c3         1 H8R      -0.074400
     21 CAH          6.8460    -0.1100     0.1090 c3         1 H8R      -0.073400
     22 CAI          7.9120     0.8780    -0.4140 c3         1 H8R      -0.075400
     23 CAJ          9.3570     0.4100    -0.1360 c3         1 H8R      -0.075400
     24 CAK         10.4230     1.3980    -0.6580 c3         1 H8R      -0.075400
     25 CAL         11.8650     0.9320    -0.3810 c3         1 H8R      -0.088100
     26 H1          -5.8900     3.1900     0.7540 hc         1 H8R       0.027033
     27 H2          -6.1050     2.6460     2.4280 hc         1 H8R       0.027033
     28 H3          -4.6120     2.2530     1.5610 hc         1 H8R       0.027033
     29 H4          -6.1380     0.2920     1.7140 hc         1 H8R       0.005700
     30 H5          -8.1850     1.9690     0.1810 hc         1 H8R       0.027033
     31 H6          -8.3400     0.2370     0.5580 hc         1 H8R       0.027033
     32 H7          -8.2950     1.4310     1.8680 hc         1 H8R       0.027033
     33 H8          -6.2290    -0.4300    -0.6210 h1         1 H8R       0.059700
     34 H10         -3.6520     0.9350    -0.6710 hn         1 H8R       0.292500
     35 H11         -2.1470    -2.7930     1.4360 ha         1 H8R       0.126000
     36 H12          0.3210    -2.9080     1.5350 ha         1 H8R       0.111500
     37 H13         -1.8480     1.0150    -0.6340 ha         1 H8R       0.126000
     38 H14          0.5820     0.8820    -0.5270 ha         1 H8R       0.111500
     39 H15          2.7480    -0.0450    -1.0070 h1         1 H8R       0.032200
     40 H16          2.7240     0.8100     0.5600 h1         1 H8R       0.032200
     41 H17          4.4640    -0.7650     1.4340 hc         1 H8R       0.053200
     42 H18          4.4870    -1.6100    -0.1160 hc         1 H8R       0.053200
     43 H19          5.2670     0.4940    -1.2500 hc         1 H8R       0.038200
     44 H20          5.2430     1.3380     0.2990 hc         1 H8R       0.038200
     45 H21          6.9800    -0.2460     1.1890 hc         1 H8R       0.038700
     46 H22          7.0040    -1.0900    -0.3590 hc         1 H8R       0.038700
     47 H23          7.7780     1.0130    -1.4940 hc         1 H8R       0.037200
     48 H24          7.7540     1.8580     0.0540 hc         1 H8R       0.037200
     49 H25          9.4910     0.2750     0.9450 hc         1 H8R       0.037200
     50 H26          9.5150    -0.5700    -0.6030 hc         1 H8R       0.037200
     51 H27         10.2940     1.5350    -1.7390 hc         1 H8R       0.036200
     52 H28         10.2700     2.3790    -0.1910 hc         1 H8R       0.036200
     53 H29         12.0370     0.8210     0.6960 hc         1 H8R       0.030033
     54 H30         12.0620    -0.0320    -0.8660 hc         1 H8R       0.030033
     55 H31         12.5840     1.6640    -0.7690 hc         1 H8R       0.030033
@<TRIPOS>BOND
     1     1     2 1   
     2     1    26 1   
     3     1    27 1   
     4     1    28 1   
     5     2     3 1   
     6     2     4 1   
     7     2    29 1   
     8     3    30 1   
     9     3    31 1   
    10     3    32 1   
    11     4     5 1   
    12     4     8 1   
    13     4    33 1   
    14     5     6 1   
    15     5     7 1   
    16     8     9 1   
    17     8    34 1   
    18     9    10 2   
    19     9    11 1   
    20    11    12 ar  
    21    11    14 ar  
    22    12    13 ar  
    23    12    35 1   
    24    13    16 ar  
    25    13    36 1   
    26    14    15 ar  
    27    14    37 1   
    28    15    16 ar  
    29    15    38 1   
    30    16    17 1   
    31    17    18 1   
    32    18    19 1   
    33    18    39 1   
    34    18    40 1   
    35    19    20 1   
    36    19    41 1   
    37    19    42 1   
    38    20    21 1   
    39    20    43 1   
    40    20    44 1   
    41    21    22 1   
    42    21    45 1   
    43    21    46 1   
    44    22    23 1   
    45    22    47 1   
    46    22    48 1   
    47    23    24 1   
    48    23    49 1   
    49    23    50 1   
    50    24    25 1   
    51    24    51 1   
    52    24    52 1   
    53    25    53 1   
    54    25    54 1   
    55    25    55 1   
@<TRIPOS>SUBSTRUCTURE
     1 H8R         1 TEMP              0 ****  ****    0 ROOT
