@<TRIPOS>MOLECULE
H8R
   55    55     1     0     0
SMALL
bcc


@<TRIPOS>ATOM
      1 CG2         -5.5400     2.7750    -0.5270 c3         1 H8R      -0.076100
      2 CB          -5.8790     1.9290     0.6990 c3         1 H8R      -0.047700
      3 CG1         -7.3180     2.1830     1.1320 c3         1 H8R      -0.076100
      4 CA          -5.5890     0.4280     0.5060 c3         1 H8R      -0.035300
      5 C           -6.2770    -0.1400    -0.7600 c          1 H8R       0.930600
      6 O           -5.5890    -0.2240    -1.7920 o          1 H8R      -0.830300
      7 OXT         -7.4820    -0.4350    -0.6320 o          1 H8R      -0.830300
      8 N           -4.1560     0.2280     0.4860 ns         1 H8R      -0.521900
      9 CAQ         -3.6140    -0.9980     0.5340 c          1 H8R       0.674700
     10 OAR         -4.2830    -2.0140     0.6970 o          1 H8R      -0.609100
     11 CAP         -2.1290    -1.0700     0.4070 ca         1 H8R      -0.153600
     12 CAA         -1.5510    -2.2620    -0.0340 ca         1 H8R      -0.059000
     13 CAB         -0.1830    -2.3850    -0.1650 ca         1 H8R      -0.209000
     14 CAO         -1.2850    -0.0180     0.7450 ca         1 H8R      -0.059000
     15 CAN          0.0940    -0.1300     0.6330 ca         1 H8R      -0.209000
     16 CAC          0.6560    -1.3160     0.1650 ca         1 H8R       0.139100
     17 OAD          1.9720    -1.5190     0.0040 os         1 H8R      -0.331900
     18 CAE          2.8730    -0.4580     0.2960 c3         1 H8R       0.145400
     19 CAF          4.2740    -0.9000    -0.0650 c3         1 H8R      -0.081400
     20 CAG          5.2880     0.2030     0.2180 c3         1 H8R      -0.074400
     21 CAH          6.7100    -0.1830    -0.1680 c3         1 H8R      -0.073400
     22 CAI          7.7210     0.9230     0.1100 c3         1 H8R      -0.075400
     23 CAJ          9.1440     0.5520    -0.2860 c3         1 H8R      -0.075400
     24 CAK         10.1530     1.6610    -0.0130 c3         1 H8R      -0.075400
     25 CAL         11.5730     1.2790    -0.4080 c3         1 H8R      -0.088100
     26 H1          -6.2110     2.5570    -1.3590 hc         1 H8R       0.027033
     27 H2          -5.6430     3.8350    -0.2900 hc         1 H8R       0.027033
     28 H3          -4.5190     2.6250    -0.8830 hc         1 H8R       0.027033
     29 H4          -5.2310     2.2570     1.5220 hc         1 H8R       0.005700
     30 H5          -8.0240     1.9260     0.3420 hc         1 H8R       0.027033
     31 H6          -7.5800     1.5970     2.0140 hc         1 H8R       0.027033
     32 H7          -7.4580     3.2360     1.3780 hc         1 H8R       0.027033
     33 H8          -5.9870    -0.0950     1.3800 h1         1 H8R       0.059700
     34 H10         -3.5850     0.9810     0.1370 hn         1 H8R       0.292500
     35 H11         -2.1830    -3.1020    -0.2900 ha         1 H8R       0.144000
     36 H12          0.2500    -3.3100    -0.5240 ha         1 H8R       0.129500
     37 H13         -1.6850     0.9100     1.1320 ha         1 H8R       0.144000
     38 H14          0.7060     0.7140     0.9210 ha         1 H8R       0.129500
     39 H15          2.6000     0.4340    -0.2790 h1         1 H8R       0.032200
     40 H16          2.8140    -0.1980     1.3590 h1         1 H8R       0.032200
     41 H17          4.5390    -1.7980     0.5010 hc         1 H8R       0.053200
     42 H18          4.3100    -1.1670    -1.1250 hc         1 H8R       0.053200
     43 H19          5.0000     1.1100    -0.3250 hc         1 H8R       0.038200
     44 H20          5.2580     0.4630     1.2810 hc         1 H8R       0.038200
     45 H21          7.0040    -1.0880     0.3750 hc         1 H8R       0.038700
     46 H22          6.7390    -0.4440    -1.2310 hc         1 H8R       0.038700
     47 H23          7.4180     1.8300    -0.4260 hc         1 H8R       0.037200
     48 H24          7.6950     1.1780     1.1750 hc         1 H8R       0.037200
     49 H25          9.4480    -0.3530     0.2500 hc         1 H8R       0.037200
     50 H26          9.1700     0.2940    -1.3510 hc         1 H8R       0.037200
     51 H27          9.8500     2.5650    -0.5510 hc         1 H8R       0.036200
     52 H28         10.1260     1.9190     1.0500 hc         1 H8R       0.036200
     53 H29         11.9110     0.3990     0.1420 hc         1 H8R       0.030033
     54 H30         11.6390     1.0460    -1.4730 hc         1 H8R       0.030033
     55 H31         12.2780     2.0860    -0.2020 hc         1 H8R       0.030033
@<TRIPOS>BOND
     1     1     2 1   
     2     1    26 1   
     3     1    27 1   
     4     1    28 1   
     5     2     3 1   
     6     2     4 1   
     7     2    29 1   
     8     3    30 1   
     9     3    31 1   
    10     3    32 1   
    11     4     5 1   
    12     4     8 1   
    13     4    33 1   
    14     5     6 1   
    15     5     7 1   
    16     8     9 1   
    17     8    34 1   
    18     9    10 2   
    19     9    11 1   
    20    11    12 ar  
    21    11    14 ar  
    22    12    13 ar  
    23    12    35 1   
    24    13    16 ar  
    25    13    36 1   
    26    14    15 ar  
    27    14    37 1   
    28    15    16 ar  
    29    15    38 1   
    30    16    17 1   
    31    17    18 1   
    32    18    19 1   
    33    18    39 1   
    34    18    40 1   
    35    19    20 1   
    36    19    41 1   
    37    19    42 1   
    38    20    21 1   
    39    20    43 1   
    40    20    44 1   
    41    21    22 1   
    42    21    45 1   
    43    21    46 1   
    44    22    23 1   
    45    22    47 1   
    46    22    48 1   
    47    23    24 1   
    48    23    49 1   
    49    23    50 1   
    50    24    25 1   
    51    24    51 1   
    52    24    52 1   
    53    25    53 1   
    54    25    54 1   
    55    25    55 1   
@<TRIPOS>SUBSTRUCTURE
     1 H8R         1 TEMP              0 ****  ****    0 ROOT
