@<TRIPOS>MOLECULE
H8S
   78    80     1     0     0
SMALL
No Charge or Current Charge


@<TRIPOS>ATOM
      1 C1           0.6570    -0.5970    32.4040 c3         1 H8S      -0.019400
      2 N1           1.6240     0.5530    40.4270 ns         1 H8S      -0.503900
      3 C2           1.7170    -1.5260    31.7720 c3         1 H8S      -0.086100
      4 N2           1.5420     0.0550    43.1050 ns         1 H8S      -0.499900
      5 C3           0.4080    -0.9490    33.8730 ca         1 H8S      -0.057300
      6 C4           1.4430    -0.8380    34.8280 ca         1 H8S      -0.072000
      7 C5           1.1730    -1.1690    36.1650 ca         1 H8S      -0.175000
      8 C6          -0.0710    -1.6000    36.5750 ca         1 H8S       0.089400
      9 C7           0.9770    -1.6620    38.5060 cc         1 H8S       0.393200
     10 C8           1.1920    -1.8580    39.9820 c3         1 H8S      -0.096700
     11 C9           0.7980    -0.6190    40.8230 c3         1 H8S       0.026700
     12 C11          2.1950     2.7360    39.4640 c3         1 H8S      -0.154400
     13 C12          2.2690     3.9170    40.4570 c3         1 H8S      -0.082100
     14 C13          0.8700    -0.8920    42.3570 c          1 H8S       0.579100
     15 C14          1.7300     0.0190    44.5640 c3         1 H8S       0.084700
     16 C15          0.9010     1.1460    45.2420 c3         1 H8S       0.095000
     17 C16         -1.4030     0.1320    45.3680 c          1 H8S       0.600100
     18 C17         -2.8320     0.2250    44.7930 c3         1 H8S      -0.137700
     19 C18         -3.8680     0.5050    45.9080 c3         1 H8S      -0.082100
     20 C19         -3.1880    -1.0390    43.9750 c3         1 H8S      -0.082100
     21 O2           0.3890    -1.8940    42.8670 o          1 H8S      -0.602100
     22 C20          3.2550     0.0040    44.9120 c6         1 H8S      -0.070700
     23 C25          3.5340    -0.4030    46.3970 c6         1 H8S      -0.073900
     24 C24          4.9550    -0.0050    46.8910 c6         1 H8S      -0.072400
     25 C23          5.9680     0.0920    45.7270 c6         1 H8S      -0.075400
     26 C22          5.5420     1.1700    44.6890 c6         1 H8S      -0.072400
     27 C21          3.9980     1.3240    44.5560 c6         1 H8S      -0.073900
     28 O1          -1.0680    -0.7150    46.1840 o          1 H8S      -0.604100
     29 O           -0.0650     1.9120    39.7200 o          1 H8S      -0.617100
     30 S            2.3230    -1.0960    37.4870 ss         1 H8S       0.010800
     31 N           -0.2090    -1.8940    37.9260 nd         1 H8S      -0.529100
     32 C26         -1.1110    -1.7170    35.6400 ca         1 H8S      -0.051000
     33 C27         -0.8690    -1.3910    34.2900 ca         1 H8S      -0.112000
     34 C            1.0300     0.8920    32.2350 c3         1 H8S      -0.086100
     35 H5          -0.2720    -0.7530    31.8410 hc         1 H8S       0.052700
     36 H12          2.6350     0.4770    40.4840 hn         1 H8S       0.321500
     37 H6           1.4210    -2.5770    31.8840 hc         1 H8S       0.036867
     38 H8           1.8250    -1.3170    30.7010 hc         1 H8S       0.036867
     39 H7           2.6960    -1.3930    32.2460 hc         1 H8S       0.036867
     40 H18          1.8880     0.8570    42.5950 hn         1 H8S       0.329500
     41 H21         -0.8920     1.7520    44.2310 hn         1 H8S       0.312500
     42 H9           2.4360    -0.5010    34.5390 ha         1 H8S       0.125000
     43 H10          0.6010    -2.7210    40.3110 hc         1 H8S       0.083700
     44 H11          2.2400    -2.1140    40.1730 hc         1 H8S       0.083700
     45 H           -0.2570    -0.3930    40.6230 h1         1 H8S       0.099700
     46 H13          3.1820     2.2600    39.4270 hc         1 H8S       0.060700
     47 H14          1.9380     3.1340    38.4750 hc         1 H8S       0.060700
     48 H15          3.0340     4.6370    40.1420 hc         1 H8S       0.043700
     49 H16          1.3070     4.4420    40.5110 hc         1 H8S       0.043700
     50 H17          2.5250     3.5630    41.4640 hc         1 H8S       0.043700
     51 H1           1.3280    -0.9340    44.9340 h1         1 H8S       0.101700
     52 H20          0.9990     1.0830    46.3320 h1         1 H8S       0.059200
     53 H19          1.2860     2.1240    44.9280 h1         1 H8S       0.059200
     54 H24         -3.6110     1.4230    46.4500 hc         1 H8S       0.042700
     55 H23         -4.8710     0.6310    45.4830 hc         1 H8S       0.042700
     56 H27         -4.1840    -0.9440    43.5260 hc         1 H8S       0.042700
     57 H22         -2.4640    -1.1900    43.1650 hc         1 H8S       0.042700
     58 H26         -3.1810    -1.9330    44.6110 hc         1 H8S       0.042700
     59 H29          3.6800    -0.7890    44.2790 hc         1 H8S       0.053700
     60 H38          2.7970     0.0460    47.0750 hc         1 H8S       0.044200
     61 H39          3.4040    -1.4890    46.4940 hc         1 H8S       0.044200
     62 H36          5.3060    -0.7290    47.6400 hc         1 H8S       0.038700
     63 H37          4.9060     0.9660    47.4030 hc         1 H8S       0.038700
     64 H35          6.0460    -0.8870    45.2330 hc         1 H8S       0.037700
     65 H34          6.9700     0.3220    46.1130 hc         1 H8S       0.037700
     66 H33          5.9740     0.9120    43.7120 hc         1 H8S       0.038700
     67 H32          5.9740     2.1410    44.9640 hc         1 H8S       0.038700
     68 H31          3.6590     2.1260    45.2270 hc         1 H8S       0.044200
     69 H30          3.7540     1.6530    43.5370 hc         1 H8S       0.044200
     70 H40         -2.0940    -2.0550    35.9560 ha         1 H8S       0.132000
     71 H41         -1.6790    -1.4830    33.5700 ha         1 H8S       0.117000
     72 H4           0.2550     1.5340    32.6700 hc         1 H8S       0.036867
     73 H2           1.9820     1.1220    32.7280 hc         1 H8S       0.036867
     74 H3           1.1250     1.1480    31.1730 hc         1 H8S       0.036867
     75 H25         -2.8650     1.0740    44.1000 hc         1 H8S       0.044700
     76 H28         -3.9020    -0.3210    46.6290 hc         1 H8S       0.042700
     77 C10          1.1310     1.7170    39.8790 c          1 H8S       0.604100
     78 N3          -0.5260     1.0850    44.9010 ns         1 H8S      -0.504900
@<TRIPOS>BOND
     1     1     3 1   
     2     1     5 1   
     3     1    34 1   
     4     1    35 1   
     5     2    11 1   
     6     2    36 1   
     7     2    77 1   
     8     3    37 1   
     9     3    38 1   
    10     3    39 1   
    11     4    14 1   
    12     4    15 1   
    13     4    40 1   
    14     5     6 ar  
    15     5    33 ar  
    16     6     7 ar  
    17     6    42 1   
    18     7     8 ar  
    19     7    30 1   
    20     8    31 1   
    21     8    32 ar  
    22     9    10 1   
    23     9    30 1   
    24     9    31 2   
    25    10    11 1   
    26    10    43 1   
    27    10    44 1   
    28    11    14 1   
    29    11    45 1   
    30    12    13 1   
    31    12    46 1   
    32    12    47 1   
    33    12    77 1   
    34    13    48 1   
    35    13    49 1   
    36    13    50 1   
    37    14    21 2   
    38    15    16 1   
    39    15    22 1   
    40    15    51 1   
    41    16    52 1   
    42    16    53 1   
    43    16    78 1   
    44    17    18 1   
    45    17    28 2   
    46    17    78 1   
    47    18    19 1   
    48    18    20 1   
    49    18    75 1   
    50    19    54 1   
    51    19    55 1   
    52    19    76 1   
    53    20    56 1   
    54    20    57 1   
    55    20    58 1   
    56    22    23 1   
    57    22    27 1   
    58    22    59 1   
    59    23    24 1   
    60    23    60 1   
    61    23    61 1   
    62    24    25 1   
    63    24    62 1   
    64    24    63 1   
    65    25    26 1   
    66    25    64 1   
    67    25    65 1   
    68    26    27 1   
    69    26    66 1   
    70    26    67 1   
    71    27    68 1   
    72    27    69 1   
    73    29    77 2   
    74    32    33 ar  
    75    32    70 1   
    76    33    71 1   
    77    34    72 1   
    78    34    73 1   
    79    34    74 1   
    80    41    78 1   
@<TRIPOS>SUBSTRUCTURE
     1 H8S         1 TEMP              0 ****  ****    0 ROOT
