@<TRIPOS>MOLECULE
H8S
   78    80     1     0     0
SMALL
bcc


@<TRIPOS>ATOM
      1 C1           0.3210    -0.2680    32.4480 c3         1 H8S      -0.019400
      2 N1           2.3980    -0.4110    40.2560 ns         1 H8S      -0.570900
      3 C2           0.9590    -1.5050    31.8260 c3         1 H8S      -0.086100
      4 N2           1.2090     0.3130    42.9520 ns         1 H8S      -0.566900
      5 C3           0.0490    -0.3980    33.9310 ca         1 H8S      -0.057300
      6 C4           0.8390    -1.1790    34.7600 ca         1 H8S      -0.090000
      7 C5           0.5570    -1.2080    36.1210 ca         1 H8S      -0.048100
      8 C6          -0.4980    -0.4730    36.6800 ca         1 H8S       0.089400
      9 C7           0.2270    -1.4090    38.5320 cc         1 H8S       0.393200
     10 C8           0.3460    -1.7180    39.9870 c3         1 H8S      -0.096700
     11 C9           1.0400    -0.5760    40.7250 c3         1 H8S       0.026700
     12 C11          4.4360     0.7510    39.6680 c3         1 H8S      -0.154400
     13 C12          5.3580     1.6020    40.5330 c3         1 H8S      -0.082100
     14 C13          1.0580    -0.8130    42.2410 c          1 H8S       0.646100
     15 C14          1.3920     0.3680    44.3890 c3         1 H8S       0.084700
     16 C15          0.2650     1.2060    45.0000 c3         1 H8S       0.095000
     17 C16         -1.5350    -0.4040    45.4270 c          1 H8S       0.667100
     18 C17         -2.8670    -0.9400    44.9290 c3         1 H8S      -0.137700
     19 C18         -3.8090    -1.2090    46.0970 c3         1 H8S      -0.082100
     20 C19         -2.6170    -2.2110    44.1160 c3         1 H8S      -0.082100
     21 O2           0.9820    -1.9340    42.7190 o          1 H8S      -0.602100
     22 C20          2.8000     0.8630    44.7540 c6         1 H8S      -0.070700
     23 C25          3.1400     0.5590    46.2270 c6         1 H8S      -0.073900
     24 C24          4.1740     1.5330    46.8010 c6         1 H8S      -0.072400
     25 C23          5.2040     1.9100    45.7430 c6         1 H8S      -0.075400
     26 C22          4.5440     2.6670    44.5780 c6         1 H8S      -0.072400
     27 C21          3.0530     2.3370    44.4410 c6         1 H8S      -0.073900
     28 O1          -0.9460    -0.9130    46.3720 o          1 H8S      -0.604100
     29 O            2.4410     1.8380    40.4320 o          1 H8S      -0.617100
     30 S            1.3500    -2.0890    37.3810 ss         1 H8S      -0.116100
     31 N           -0.6520    -0.6100    38.0390 nd         1 H8S      -0.529100
     32 C26         -1.2920     0.3110    35.8420 ca         1 H8S      -0.069000
     33 C27         -1.0120     0.3370    34.4920 ca         1 H8S      -0.130000
     34 C            1.1760     0.9730    32.1820 c3         1 H8S      -0.086100
     35 H5          -0.6470    -0.1120    31.9600 hc         1 H8S       0.052700
     36 H12          2.9500    -1.2460    40.1270 hn         1 H8S       0.321500
     37 H6           0.3820    -2.4070    32.0350 hc         1 H8S       0.036867
     38 H8           1.0190    -1.3890    30.7440 hc         1 H8S       0.036867
     39 H7           1.9760    -1.6640    32.1880 hc         1 H8S       0.036867
     40 H18          1.2720     1.1810    42.4380 hn         1 H8S       0.329500
     41 H21         -1.5470     0.9810    43.9450 hn         1 H8S       0.312500
     42 H9           1.6610    -1.7600    34.3630 ha         1 H8S       0.143000
     43 H10         -0.6580    -1.8470    40.3950 hc         1 H8S       0.083700
     44 H11          0.8810    -2.6570    40.1440 hc         1 H8S       0.083700
     45 H            0.5030     0.3500    40.5120 h1         1 H8S       0.099700
     46 H13          4.8070    -0.2740    39.6160 hc         1 H8S       0.060700
     47 H14          4.4360     1.1320    38.6430 hc         1 H8S       0.060700
     48 H15          6.3730     1.5790    40.1390 hc         1 H8S       0.043700
     49 H16          5.0330     2.6400    40.5610 hc         1 H8S       0.043700
     50 H17          5.3920     1.2310    41.5580 hc         1 H8S       0.043700
     51 H1           1.2920    -0.6550    44.7560 h1         1 H8S       0.101700
     52 H20          0.4110     1.3110    46.0750 h1         1 H8S       0.059200
     53 H19          0.2750     2.2130    44.5800 h1         1 H8S       0.059200
     54 H24         -4.0050    -0.3060    46.6760 hc         1 H8S       0.042700
     55 H23         -4.7660    -1.5800    45.7280 hc         1 H8S       0.042700
     56 H27         -3.5580    -2.5980    43.7240 hc         1 H8S       0.042700
     57 H22         -1.9550    -2.0260    43.2690 hc         1 H8S       0.042700
     58 H26         -2.1660    -2.9880    44.7340 hc         1 H8S       0.042700
     59 H29          3.4880     0.2810    44.1270 hc         1 H8S       0.053700
     60 H38          2.2400     0.5840    46.8470 hc         1 H8S       0.044200
     61 H39          3.5190    -0.4640    46.2930 hc         1 H8S       0.044200
     62 H36          4.6600     1.0880    47.6720 hc         1 H8S       0.038700
     63 H37          3.6760     2.4380    47.1600 hc         1 H8S       0.038700
     64 H35          5.6810     0.9960    45.3760 hc         1 H8S       0.037700
     65 H34          6.0030     2.5130    46.1790 hc         1 H8S       0.037700
     66 H33          5.0570     2.4210    43.6450 hc         1 H8S       0.038700
     67 H32          4.6600     3.7440    44.7160 hc         1 H8S       0.038700
     68 H31          2.4690     2.9670    45.1180 hc         1 H8S       0.044200
     69 H30          2.7210     2.5890    43.4300 hc         1 H8S       0.044200
     70 H40         -2.1150     0.8820    36.2520 ha         1 H8S       0.150000
     71 H41         -1.6290     0.9410    33.8370 ha         1 H8S       0.135000
     72 H4           0.7060     1.8750    32.5730 hc         1 H8S       0.036867
     73 H2           2.1570     0.8740    32.6520 hc         1 H8S       0.036867
     74 H3           1.3290     1.1130    31.1100 hc         1 H8S       0.036867
     75 H25         -3.3300    -0.1980    44.2720 hc         1 H8S       0.044700
     76 H28         -3.3960    -1.9600    46.7690 hc         1 H8S       0.042700
     77 C10          3.0080     0.7870    40.1590 c          1 H8S       0.671100
     78 N3          -1.0410     0.6450    44.7470 ns         1 H8S      -0.571900
@<TRIPOS>BOND
     1     1     3 1   
     2     1     5 1   
     3     1    34 1   
     4     1    35 1   
     5     2    11 1   
     6     2    36 1   
     7     2    77 1   
     8     3    37 1   
     9     3    38 1   
    10     3    39 1   
    11     4    14 1   
    12     4    15 1   
    13     4    40 1   
    14     5     6 ar  
    15     5    33 ar  
    16     6     7 ar  
    17     6    42 1   
    18     7     8 ar  
    19     7    30 1   
    20     8    31 1   
    21     8    32 ar  
    22     9    10 1   
    23     9    30 1   
    24     9    31 2   
    25    10    11 1   
    26    10    43 1   
    27    10    44 1   
    28    11    14 1   
    29    11    45 1   
    30    12    13 1   
    31    12    46 1   
    32    12    47 1   
    33    12    77 1   
    34    13    48 1   
    35    13    49 1   
    36    13    50 1   
    37    14    21 2   
    38    15    16 1   
    39    15    22 1   
    40    15    51 1   
    41    16    52 1   
    42    16    53 1   
    43    16    78 1   
    44    17    18 1   
    45    17    28 2   
    46    17    78 1   
    47    18    19 1   
    48    18    20 1   
    49    18    75 1   
    50    19    54 1   
    51    19    55 1   
    52    19    76 1   
    53    20    56 1   
    54    20    57 1   
    55    20    58 1   
    56    22    23 1   
    57    22    27 1   
    58    22    59 1   
    59    23    24 1   
    60    23    60 1   
    61    23    61 1   
    62    24    25 1   
    63    24    62 1   
    64    24    63 1   
    65    25    26 1   
    66    25    64 1   
    67    25    65 1   
    68    26    27 1   
    69    26    66 1   
    70    26    67 1   
    71    27    68 1   
    72    27    69 1   
    73    29    77 2   
    74    32    33 ar  
    75    32    70 1   
    76    33    71 1   
    77    34    72 1   
    78    34    73 1   
    79    34    74 1   
    80    41    78 1   
@<TRIPOS>SUBSTRUCTURE
     1 H8S         1 TEMP              0 ****  ****    0 ROOT
