@<TRIPOS>MOLECULE
H8T
   71    73     1     0     0
SMALL
abcg2


@<TRIPOS>ATOM
      1 C1         257.9230   306.5760   277.7890 cc         1 H8T      -0.204600
      2 C10        254.2880   309.0150   280.8080 cc         1 H8T       0.455300
      3 C12        254.0170   306.8870   280.7800 cc         1 H8T       0.195900
      4 C13        253.9490   310.4120   281.1510 c3         1 H8T      -0.212700
      5 C14        254.4780   310.8300   282.5050 c          1 H8T       0.585100
      6 C16        254.3860   312.2980   282.8290 c3         1 H8T      -0.218400
      7 C17        255.7710   312.9720   282.7070 c3         1 H8T       0.225500
      8 C19        256.2390   312.9830   281.2850 c2         1 H8T      -0.243200
      9 C2         259.2060   307.0410   277.9280 cd         1 H8T      -0.099000
     10 C20        257.1370   312.1680   280.7090 ce         1 H8T      -0.041200
     11 C21        257.8510   311.0590   281.4200 c3         1 H8T      -0.069900
     12 C22        257.4330   312.3630   279.2880 ce         1 H8T      -0.180000
     13 C23        258.3260   311.6710   278.5780 c2         1 H8T      -0.214200
     14 C24        258.6830   311.9910   277.1560 c3         1 H8T       0.138200
     15 C26        258.0430   310.1340   275.6660 c          1 H8T       0.606300
     16 C28        258.5940   308.9530   274.9560 ce         1 H8T      -0.295200
     17 C29        257.8320   308.1530   274.2160 c2         1 H8T      -0.144200
     18 C3         259.3310   307.5840   279.2280 cd         1 H8T      -0.202000
     19 C30        258.2960   306.9000   273.5350 c3         1 H8T      -0.048500
     20 C31        259.8080   306.8110   273.3680 c3         1 H8T      -0.083100
     21 C32        257.6460   305.7110   274.2710 c3         1 H8T       0.180300
     22 C33        257.9490   304.3190   273.6980 c3         1 H8T      -0.058700
     23 C34        259.2210   303.6680   274.2380 c3         1 H8T      -0.087100
     24 C35        256.7610   303.3860   273.9260 c3         1 H8T      -0.087100
     25 C37        257.2140   306.2040   276.5680 c          1 H8T       0.642700
     26 C4         258.1150   307.4540   279.8390 cc         1 H8T      -0.123000
     27 C6         256.0030   306.3120   279.3490 c          1 H8T       0.534400
     28 C8         255.1370   307.2220   280.0930 cd         1 H8T       0.148500
     29 N25        258.9700   310.8240   276.3570 ns         1 H8T      -0.506900
     30 N5         257.2520   306.8450   278.9680 n          1 H8T       0.064200
     31 N9         255.2900   308.5900   280.1290 nd         1 H8T      -0.627000
     32 O11        253.4810   308.0230   281.2400 os         1 H8T      -0.242000
     33 O18        255.6960   314.3180   283.1200 oh         1 H8T      -0.650000
     34 O27        256.8650   310.4620   275.6160 o          1 H8T      -0.596100
     35 O36        258.0580   305.7610   275.6450 os         1 H8T      -0.439100
     36 O38        256.0210   306.3230   276.4190 o          1 H8T      -0.481000
     37 O7         255.6890   305.1850   279.0690 o          1 H8T      -0.489100
     38 H1         253.5220   305.9570   281.0080 h4         1 H8T       0.084100
     39 H2         254.3600   311.0780   280.3900 hc         1 H8T       0.102200
     40 H3         252.8660   310.5720   281.1450 hc         1 H8T       0.102200
     41 H4         254.0300   312.4020   283.8590 hc         1 H8T       0.071200
     42 H5         253.6760   312.8010   282.1690 hc         1 H8T       0.071200
     43 H6         256.4690   312.4160   283.3420 h1         1 H8T       0.048700
     44 H7         255.7570   313.7320   280.6600 ha         1 H8T       0.185000
     45 H8         259.9570   307.0450   277.1550 ha         1 H8T       0.139000
     46 H9         257.6820   311.0620   282.4930 hc         1 H8T       0.049033
     47 H10        257.5160   310.0950   281.0320 hc         1 H8T       0.049033
     48 H11        258.9280   311.1160   281.2560 hc         1 H8T       0.049033
     49 H12        256.8840   313.1640   278.7980 ha         1 H8T       0.173000
     50 H13        258.8870   310.8590   279.0280 ha         1 H8T       0.177000
     51 H14        259.5840   312.6100   277.1450 h1         1 H8T       0.058700
     52 H15        257.8970   312.5770   276.6800 h1         1 H8T       0.058700
     53 H16        259.6540   308.7550   275.0730 ha         1 H8T       0.175000
     54 H17        256.7730   308.3790   274.1290 ha         1 H8T       0.201000
     55 H18        260.2110   308.0260   279.6640 ha         1 H8T       0.135000
     56 H19        257.8450   306.8880   272.5360 hc         1 H8T       0.063700
     57 H20        260.0810   305.9780   272.7220 hc         1 H8T       0.039033
     58 H21        260.1900   307.7180   272.9010 hc         1 H8T       0.039033
     59 H22        260.3300   306.6820   274.3170 hc         1 H8T       0.039033
     60 H23        256.5650   305.8610   274.2190 h1         1 H8T       0.073700
     61 H24        258.0630   304.4570   272.6170 hc         1 H8T       0.048700
     62 H25        260.0990   304.3070   274.1670 hc         1 H8T       0.038700
     63 H26        259.1060   303.3790   275.2830 hc         1 H8T       0.038700
     64 H27        259.4340   302.7600   273.6720 hc         1 H8T       0.038700
     65 H28        255.8530   303.7700   273.4600 hc         1 H8T       0.038700
     66 H29        256.9580   302.3980   273.5090 hc         1 H8T       0.038700
     67 H30        256.5610   303.2570   274.9920 hc         1 H8T       0.038700
     68 H31        257.8130   307.7000   280.8430 h4         1 H8T       0.158000
     69 H32        259.9160   310.4790   276.3690 hn         1 H8T       0.310500
     70 H33        255.4640   314.3360   284.0540 ho         1 H8T       0.444000
     71 O15        254.9690   310.0320   283.2670 o          1 H8T      -0.509100
@<TRIPOS>BOND
     1     1     9 2   
     2     1    25 1   
     3     1    30 1   
     4     2     4 1   
     5     2    31 2   
     6     2    32 1   
     7     3    28 2   
     8     3    32 1   
     9     3    38 1   
    10     4     5 1   
    11     4    39 1   
    12     4    40 1   
    13     5     6 1   
    14     5    71 2   
    15     6     7 1   
    16     6    41 1   
    17     6    42 1   
    18     7     8 1   
    19     7    33 1   
    20     7    43 1   
    21     8    10 2   
    22     8    44 1   
    23     9    18 1   
    24     9    45 1   
    25    10    11 1   
    26    10    12 1   
    27    11    46 1   
    28    11    47 1   
    29    11    48 1   
    30    12    13 2   
    31    12    49 1   
    32    13    14 1   
    33    13    50 1   
    34    14    29 1   
    35    14    51 1   
    36    14    52 1   
    37    15    16 1   
    38    15    29 1   
    39    15    34 2   
    40    16    17 2   
    41    16    53 1   
    42    17    19 1   
    43    17    54 1   
    44    18    26 2   
    45    18    55 1   
    46    19    20 1   
    47    19    21 1   
    48    19    56 1   
    49    20    57 1   
    50    20    58 1   
    51    20    59 1   
    52    21    22 1   
    53    21    35 1   
    54    21    60 1   
    55    22    23 1   
    56    22    24 1   
    57    22    61 1   
    58    23    62 1   
    59    23    63 1   
    60    23    64 1   
    61    24    65 1   
    62    24    66 1   
    63    24    67 1   
    64    25    35 1   
    65    25    36 2   
    66    26    30 1   
    67    26    68 1   
    68    27    28 1   
    69    27    30 1   
    70    27    37 2   
    71    28    31 1   
    72    29    69 1   
    73    33    70 1   
@<TRIPOS>SUBSTRUCTURE
     1 H8T         1 TEMP              0 ****  ****    0 ROOT
