@<TRIPOS>MOLECULE
H8T
   71    73     1     0     0
SMALL
No Charge or Current Charge


@<TRIPOS>ATOM
      1 C1         257.5210   307.0870   277.6940 cc         1 H8T      -0.204600
      2 C10        253.6060   309.1100   281.3590 cc         1 H8T       0.455300
      3 C12        253.2920   307.2390   280.3800 cc         1 H8T       0.195900
      4 C13        253.2920   310.2520   282.2580 c3         1 H8T      -0.212700
      5 C14        254.3690   310.4710   283.3100 c          1 H8T       0.585100
      6 C16        254.9560   311.8790   283.4500 c3         1 H8T      -0.218400
      7 C17        256.3550   311.9790   282.8140 c3         1 H8T       0.225500
      8 C19        256.3370   311.9190   281.2980 c2         1 H8T      -0.243200
      9 C2         258.8200   307.4730   277.9600 cd         1 H8T      -0.099000
     10 C20        257.3980   311.8360   280.4600 ce         1 H8T      -0.041200
     11 C21        258.8360   311.7310   280.9540 c3         1 H8T      -0.069900
     12 C22        257.1730   311.7960   279.0030 ce         1 H8T      -0.180000
     13 C23        258.1150   312.0100   278.0540 c2         1 H8T      -0.214200
     14 C24        257.8810   311.9790   276.5640 c3         1 H8T       0.138200
     15 C26        258.3050   310.3400   274.7190 c          1 H8T       0.606300
     16 C28        258.8090   308.9670   274.4760 ce         1 H8T      -0.295200
     17 C29        258.4250   308.1740   273.4460 c2         1 H8T      -0.144200
     18 C3         258.8020   308.1530   279.2140 cd         1 H8T      -0.202000
     19 C30        258.8140   306.7110   273.2680 c3         1 H8T      -0.048500
     20 C31        260.3450   306.5240   273.3940 c3         1 H8T      -0.083100
     21 C32        257.9380   305.8060   274.1980 c3         1 H8T       0.180300
     22 C33        258.1400   304.2550   274.0860 c3         1 H8T      -0.058700
     23 C34        259.3020   303.6770   274.9410 c3         1 H8T      -0.087100
     24 C35        256.8310   303.4940   274.4100 c3         1 H8T      -0.087100
     25 C37        257.1030   306.5040   276.3850 c          1 H8T       0.642700
     26 C4         257.5050   308.1300   279.6610 cc         1 H8T      -0.123000
     27 C6         255.3720   306.9410   279.0460 c          1 H8T       0.534400
     28 C8         254.5200   307.7270   280.0070 cd         1 H8T       0.148500
     29 N25        258.3600   310.7100   276.0380 ns         1 H8T      -0.506900
     30 N5         256.6880   307.4360   278.7690 n          1 H8T       0.064200
     31 N9         254.7000   308.9590   280.6350 nd         1 H8T      -0.627000
     32 O11        252.7010   308.1040   281.2440 os         1 H8T      -0.242000
     33 O18        256.9200   313.2280   283.2030 oh         1 H8T      -0.650000
     34 O27        257.8030   311.0410   273.8540 o          1 H8T      -0.596100
     35 O36        258.1680   306.2190   275.5650 os         1 H8T      -0.439100
     36 O38        255.9410   306.3450   276.0410 o          1 H8T      -0.481000
     37 O7         254.9510   305.9000   278.5490 o          1 H8T      -0.489100
     38 H1         252.7580   306.3350   280.1220 h4         1 H8T       0.084100
     39 H2         253.1370   311.1590   281.6670 hc         1 H8T       0.102200
     40 H3         252.3580   310.0390   282.7870 hc         1 H8T       0.102200
     41 H4         255.0410   312.1020   284.5200 hc         1 H8T       0.071200
     42 H5         254.3060   312.6170   282.9670 hc         1 H8T       0.071200
     43 H6         256.9700   311.1530   283.2010 h1         1 H8T       0.048700
     44 H7         255.3380   311.9820   280.8710 ha         1 H8T       0.185000
     45 H8         259.6870   307.3290   277.3220 ha         1 H8T       0.139000
     46 H9         258.9000   311.3560   281.9810 hc         1 H8T       0.049033
     47 H10        259.4250   311.0420   280.3380 hc         1 H8T       0.049033
     48 H11        259.3320   312.7090   280.9300 hc         1 H8T       0.049033
     49 H12        256.1480   311.5900   278.6880 ha         1 H8T       0.173000
     50 H13        259.1460   312.2430   278.3220 ha         1 H8T       0.177000
     51 H14        258.4230   312.8000   276.0760 h1         1 H8T       0.058700
     52 H15        256.8110   312.0840   276.3370 h1         1 H8T       0.058700
     53 H16        259.4300   308.5560   275.2670 ha         1 H8T       0.175000
     54 H17        257.7480   308.5570   272.6780 ha         1 H8T       0.201000
     55 H18        259.6520   308.5970   279.7230 ha         1 H8T       0.135000
     56 H19        258.5580   306.4310   272.2380 hc         1 H8T       0.063700
     57 H20        260.6520   305.5480   273.0030 hc         1 H8T       0.039033
     58 H21        260.8710   307.2880   272.8090 hc         1 H8T       0.039033
     59 H22        260.6740   306.6070   274.4370 hc         1 H8T       0.039033
     60 H23        256.9070   306.0230   273.8870 h1         1 H8T       0.073700
     61 H24        258.3720   304.0380   273.0360 hc         1 H8T       0.048700
     62 H25        260.2570   304.1660   274.7330 hc         1 H8T       0.038700
     63 H26        259.0940   303.7860   276.0120 hc         1 H8T       0.038700
     64 H27        259.4310   302.6080   274.7350 hc         1 H8T       0.038700
     65 H28        256.0080   303.8440   273.7760 hc         1 H8T       0.038700
     66 H29        256.9550   302.4180   274.2330 hc         1 H8T       0.038700
     67 H30        256.5430   303.6360   275.4580 hc         1 H8T       0.038700
     68 H31        257.0880   308.4900   280.5910 h4         1 H8T       0.158000
     69 H32        258.7350   310.0340   276.6910 hn         1 H8T       0.310500
     70 H33        257.0130   313.2080   284.1800 ho         1 H8T       0.444000
     71 O15        254.6960   309.5760   284.0770 o          1 H8T      -0.509100
@<TRIPOS>BOND
     1     1     9 2   
     2     1    25 1   
     3     1    30 1   
     4     2     4 1   
     5     2    31 2   
     6     2    32 1   
     7     3    28 2   
     8     3    32 1   
     9     3    38 1   
    10     4     5 1   
    11     4    39 1   
    12     4    40 1   
    13     5     6 1   
    14     5    71 2   
    15     6     7 1   
    16     6    41 1   
    17     6    42 1   
    18     7     8 1   
    19     7    33 1   
    20     7    43 1   
    21     8    10 2   
    22     8    44 1   
    23     9    18 1   
    24     9    45 1   
    25    10    11 1   
    26    10    12 1   
    27    11    46 1   
    28    11    47 1   
    29    11    48 1   
    30    12    13 2   
    31    12    49 1   
    32    13    14 1   
    33    13    50 1   
    34    14    29 1   
    35    14    51 1   
    36    14    52 1   
    37    15    16 1   
    38    15    29 1   
    39    15    34 2   
    40    16    17 2   
    41    16    53 1   
    42    17    19 1   
    43    17    54 1   
    44    18    26 2   
    45    18    55 1   
    46    19    20 1   
    47    19    21 1   
    48    19    56 1   
    49    20    57 1   
    50    20    58 1   
    51    20    59 1   
    52    21    22 1   
    53    21    35 1   
    54    21    60 1   
    55    22    23 1   
    56    22    24 1   
    57    22    61 1   
    58    23    62 1   
    59    23    63 1   
    60    23    64 1   
    61    24    65 1   
    62    24    66 1   
    63    24    67 1   
    64    25    35 1   
    65    25    36 2   
    66    26    30 1   
    67    26    68 1   
    68    27    28 1   
    69    27    30 1   
    70    27    37 2   
    71    28    31 1   
    72    29    69 1   
    73    33    70 1   
@<TRIPOS>SUBSTRUCTURE
     1 H8T         1 TEMP              0 ****  ****    0 ROOT
