@<TRIPOS>MOLECULE
H8U
   71    77     1     0     0
SMALL
No Charge or Current Charge


@<TRIPOS>ATOM
      1 OAV        -54.7870   -20.3070    22.0480 o          1 H8U      -0.526000
      2 CAP        -53.6000   -20.4130    22.3280 c          1 H8U       0.562000
      3 NAO        -53.0940   -21.0460    23.4390 ns         1 H8U      -0.136000
      4 CAN        -51.7330   -20.9130    23.6820 ca         1 H8U      -0.029000
      5 CBA        -50.9970   -21.3810    24.7820 ca         1 H8U       0.050100
      6 OBF        -51.6840   -22.1800    25.6840 os         1 H8U      -0.251200
      7 CBE        -51.1670   -22.8490    26.7640 c2         1 H8U       0.012100
      8 CBD        -50.0580   -22.5320    27.4450 c2         1 H8U      -0.334200
      9 CBC        -49.1320   -21.3680    27.2230 c3         1 H8U       0.237200
     10 CBG        -47.8130   -21.5590    28.0040 c3         1 H8U      -0.095100
     11 CBH        -49.7820   -20.0080    27.5820 c3         1 H8U      -0.095100
     12 OBB        -48.7510   -21.3640    25.8440 os         1 H8U      -0.364100
     13 CAZ        -49.6140   -21.0320    24.8240 ca         1 H8U       0.117100
     14 CAY        -49.0570   -20.2570    23.7800 ca         1 H8U      -0.140000
     15 CAX        -49.8380   -19.8070    22.6980 ca         1 H8U      -0.058000
     16 CAM        -51.1940   -20.1710    22.6490 ca         1 H8U      -0.127300
     17 CAH        -52.3000   -19.8380    21.6230 c5         1 H8U      -0.078700
     18 CAI        -52.3910   -18.2750    21.4160 c5         1 H8U      -0.048400
     19 CAG        -52.0190   -20.4890    20.1920 c5         1 H8U      -0.003000
     20 CBI        -52.3700   -22.0030    20.1080 c3         1 H8U      -0.088100
     21 CBJ        -50.5500   -20.3710    19.6850 c3         1 H8U      -0.088100
     22 CAC        -53.0510   -19.6180    19.4060 c5         1 H8U      -0.090700
     23 CAB        -53.1600   -19.5800    17.8570 c6         1 H8U      -0.036400
     24 CAA        -53.5190   -18.1060    17.4120 c5         1 H8U       0.077200
     25 CAR        -54.6770   -17.4940    18.3510 c          1 H8U       0.546000
     26 OAU        -55.7850   -17.0880    18.0230 o          1 H8U      -0.562000
     27 NAS        -54.1960   -17.4150    19.7260 n          1 H8U      -0.409800
     28 CAT        -54.9980   -16.7770    20.8370 c3         1 H8U       0.088300
     29 CAD        -52.8210   -18.0940    19.9070 c5         1 H8U       0.105400
     30 CAE        -51.8130   -17.2220    19.0320 c6         1 H8U       0.172800
     31 NAF        -52.2480   -17.3100    17.5940 n3         1 H8U      -0.749600
     32 CAJ        -52.5330   -15.9980    16.9370 c5         1 H8U       0.160800
     33 CAK        -53.5680   -16.3290    15.8060 c5         1 H8U      -0.115400
     34 CAL        -53.7240   -17.8760    15.8720 c5         1 H8U       0.212000
     35 CAQ        -55.0130   -18.4420    15.2290 c3         1 H8U      -0.078100
     36 OAW        -52.6280   -18.4540    15.1730 oh         1 H8U      -0.669000
     37 HAO        -53.7030   -21.4880    24.1140 hn         1 H8U       0.183000
     38 HBE        -51.7800   -23.7070    27.0500 h4         1 H8U       0.215000
     39 HBD        -49.7780   -23.1590    28.2920 ha         1 H8U       0.190000
     40 HBG        -48.0000   -21.5780    29.0840 hc         1 H8U       0.049033
     41 HBH        -47.3280   -22.5010    27.7240 hc         1 H8U       0.049033
     42 HBI        -47.1150   -20.7390    27.7950 hc         1 H8U       0.049033
     43 HBJ        -49.9630   -19.9460    28.6610 hc         1 H8U       0.049033
     44 HBK        -49.1270   -19.1760    27.2990 hc         1 H8U       0.049033
     45 HBL        -50.7460   -19.8720    27.0790 hc         1 H8U       0.049033
     46 HAY        -48.0070   -19.9820    23.8270 ha         1 H8U       0.132000
     47 HAX        -49.3880   -19.1850    21.9300 ha         1 H8U       0.123000
     48 HAJ        -51.4160   -17.8010    21.5760 hc         1 H8U       0.063200
     49 HAI        -53.0550   -17.8140    22.1520 hc         1 H8U       0.063200
     50 HBM        -51.7640   -22.5900    20.8090 hc         1 H8U       0.043533
     51 HBN        -53.4230   -22.1990    20.3380 hc         1 H8U       0.043533
     52 HBO        -52.1880   -22.3960    19.1010 hc         1 H8U       0.043533
     53 HBQ        -49.8910   -21.0640    20.2220 hc         1 H8U       0.043533
     54 HBR        -50.4640   -20.6240    18.6230 hc         1 H8U       0.043533
     55 HBP        -50.1290   -19.3740    19.8190 hc         1 H8U       0.043533
     56 HAD        -54.0620   -19.9300    19.6900 hc         1 H8U       0.086700
     57 HAB        -53.9430   -20.2720    17.5210 hc         1 H8U       0.067200
     58 HAC        -52.2250   -19.9080    17.3870 hc         1 H8U       0.067200
     59 HAU        -54.3710   -16.0600    21.3820 h1         1 H8U       0.047700
     60 HAV        -55.8630   -16.2420    20.4270 h1         1 H8U       0.047700
     61 HAT        -55.3550   -17.5510    21.5280 h1         1 H8U       0.047700
     62 HAF        -50.7770   -17.5620    19.1330 h1         1 H8U       0.052200
     63 HAE        -51.8360   -16.1840    19.3940 h1         1 H8U       0.052200
     64 HAL        -51.6150   -15.5490    16.5340 h1         1 H8U       0.044200
     65 HAK        -52.9700   -15.2780    17.6430 h1         1 H8U       0.044200
     66 HAN        -53.2220   -15.9890    14.8240 hc         1 H8U       0.067700
     67 HAM        -54.5180   -15.8170    15.9920 hc         1 H8U       0.067700
     68 HAQ        -55.9170   -17.9800    15.6380 hc         1 H8U       0.054033
     69 HAR        -55.0220   -18.2600    14.1480 hc         1 H8U       0.054033
     70 HAS        -55.0920   -19.5240    15.3840 hc         1 H8U       0.054033
     71 HAW        -51.8890   -18.2550    15.7960 ho         1 H8U       0.456000
@<TRIPOS>BOND
     1     1     2 2   
     2     2     3 1   
     3     2    17 1   
     4     3     4 1   
     5     3    37 1   
     6     4     5 ar  
     7     4    16 ar  
     8     5     6 1   
     9     5    13 ar  
    10     6     7 1   
    11     7     8 2   
    12     7    38 1   
    13     8     9 1   
    14     8    39 1   
    15     9    10 1   
    16     9    11 1   
    17     9    12 1   
    18    10    40 1   
    19    10    41 1   
    20    10    42 1   
    21    11    43 1   
    22    11    44 1   
    23    11    45 1   
    24    12    13 1   
    25    13    14 ar  
    26    14    15 ar  
    27    14    46 1   
    28    15    16 ar  
    29    15    47 1   
    30    16    17 1   
    31    17    18 1   
    32    17    19 1   
    33    18    29 1   
    34    18    48 1   
    35    18    49 1   
    36    19    20 1   
    37    19    21 1   
    38    19    22 1   
    39    20    50 1   
    40    20    51 1   
    41    20    52 1   
    42    21    53 1   
    43    21    54 1   
    44    21    55 1   
    45    22    23 1   
    46    22    29 1   
    47    22    56 1   
    48    23    24 1   
    49    23    57 1   
    50    23    58 1   
    51    24    25 1   
    52    24    31 1   
    53    24    34 1   
    54    25    26 2   
    55    25    27 1   
    56    27    28 1   
    57    27    29 1   
    58    28    59 1   
    59    28    60 1   
    60    28    61 1   
    61    29    30 1   
    62    30    31 1   
    63    30    62 1   
    64    30    63 1   
    65    31    32 1   
    66    32    33 1   
    67    32    64 1   
    68    32    65 1   
    69    33    34 1   
    70    33    66 1   
    71    33    67 1   
    72    34    35 1   
    73    34    36 1   
    74    35    68 1   
    75    35    69 1   
    76    35    70 1   
    77    36    71 1   
@<TRIPOS>SUBSTRUCTURE
     1 H8U         1 TEMP              0 ****  ****    0 ROOT
