@<TRIPOS>MOLECULE
H8U
   71    77     1     0     0
SMALL
abcg2


@<TRIPOS>ATOM
      1 OAV        -54.6620   -20.4460    21.9250 o          1 H8U      -0.526000
      2 CAP        -53.4980   -20.5350    22.2780 c          1 H8U       0.562000
      3 NAO        -53.0620   -21.2650    23.3470 ns         1 H8U      -0.136000
      4 CAN        -51.7100   -21.0410    23.6040 ca         1 H8U      -0.029000
      5 CBA        -50.9630   -21.5380    24.6610 ca         1 H8U       0.050100
      6 OBF        -51.5960   -22.4250    25.4970 os         1 H8U      -0.251200
      7 CBE        -51.3800   -22.4630    26.8520 c2         1 H8U       0.012100
      8 CBD        -50.3640   -21.9950    27.5660 c2         1 H8U      -0.334200
      9 CBC        -49.0960   -21.3260    27.1160 c3         1 H8U       0.237200
     10 CBG        -47.9110   -21.9010    27.8860 c3         1 H8U      -0.095100
     11 CBH        -49.1680   -19.8080    27.2880 c3         1 H8U      -0.095100
     12 OBB        -48.8020   -21.6490    25.7210 os         1 H8U      -0.364100
     13 CAZ        -49.6250   -21.1400    24.7580 ca         1 H8U       0.117100
     14 CAY        -49.0960   -20.2520    23.8220 ca         1 H8U      -0.140000
     15 CAX        -49.8630   -19.7730    22.7620 ca         1 H8U      -0.058000
     16 CAM        -51.1800   -20.1830    22.6410 ca         1 H8U      -0.127300
     17 CAH        -52.2600   -19.8570    21.6350 c5         1 H8U      -0.078700
     18 CAI        -52.5340   -18.3430    21.4170 c5         1 H8U      -0.048400
     19 CAG        -52.0270   -20.4520    20.1720 c5         1 H8U      -0.003000
     20 CBI        -52.3600   -21.9430    20.0710 c3         1 H8U      -0.088100
     21 CBJ        -50.5770   -20.2680    19.7160 c3         1 H8U      -0.088100
     22 CAC        -53.0440   -19.6000    19.3960 c5         1 H8U      -0.090700
     23 CAB        -53.0960   -19.5560    17.8670 c6         1 H8U      -0.036400
     24 CAA        -53.4920   -18.1230    17.4810 c5         1 H8U       0.077200
     25 CAR        -54.6630   -17.6200    18.3750 c          1 H8U       0.546000
     26 OAU        -55.7570   -17.2260    17.9650 o          1 H8U      -0.562000
     27 NAS        -54.2880   -17.5800    19.6770 n          1 H8U      -0.409800
     28 CAT        -55.1480   -17.0450    20.7150 c3         1 H8U       0.088300
     29 CAD        -52.9580   -18.1630    19.9510 c5         1 H8U       0.105400
     30 CAE        -51.9770   -17.2500    19.1890 c6         1 H8U       0.172800
     31 NAF        -52.3390   -17.2420    17.7750 n3         1 H8U      -0.749600
     32 CAJ        -52.6350   -15.9430    17.1520 c5         1 H8U       0.160800
     33 CAK        -53.5030   -16.2990    15.9240 c5         1 H8U      -0.115400
     34 CAL        -53.6550   -17.8340    15.9710 c5         1 H8U       0.212000
     35 CAQ        -54.8940   -18.3810    15.2960 c3         1 H8U      -0.078100
     36 OAW        -52.5400   -18.4400    15.2870 oh         1 H8U      -0.669000
     37 HAO        -53.6850   -21.7700    23.9600 hn         1 H8U       0.183000
     38 HBE        -52.2040   -22.9810    27.3230 h4         1 H8U       0.215000
     39 HBD        -50.4530   -22.1420    28.6360 ha         1 H8U       0.190000
     40 HBG        -48.0370   -21.7210    28.9530 hc         1 H8U       0.049033
     41 HBH        -47.8370   -22.9760    27.7190 hc         1 H8U       0.049033
     42 HBI        -46.9880   -21.4240    27.5550 hc         1 H8U       0.049033
     43 HBJ        -49.3360   -19.5660    28.3380 hc         1 H8U       0.049033
     44 HBK        -48.2300   -19.3520    26.9680 hc         1 H8U       0.049033
     45 HBL        -49.9880   -19.3860    26.7070 hc         1 H8U       0.049033
     46 HAY        -48.0650   -19.9490    23.9410 ha         1 H8U       0.132000
     47 HAX        -49.4250   -19.0810    22.0570 ha         1 H8U       0.123000
     48 HAJ        -51.6200   -17.7810    21.6040 hc         1 H8U       0.063200
     49 HAI        -53.2740   -17.9800    22.1250 hc         1 H8U       0.063200
     50 HBM        -51.7430   -22.5270    20.7580 hc         1 H8U       0.043533
     51 HBN        -53.4090   -22.1440    20.2850 hc         1 H8U       0.043533
     52 HBO        -52.1510   -22.2950    19.0590 hc         1 H8U       0.043533
     53 HBQ        -49.9260   -20.9710    20.2350 hc         1 H8U       0.043533
     54 HBR        -50.5010   -20.4720    18.6480 hc         1 H8U       0.043533
     55 HBP        -50.1910   -19.2680    19.8950 hc         1 H8U       0.043533
     56 HAD        -54.0160   -19.9490    19.7410 hc         1 H8U       0.086700
     57 HAB        -53.8140   -20.2760    17.4760 hc         1 H8U       0.067200
     58 HAC        -52.1290   -19.7650    17.4140 hc         1 H8U       0.067200
     59 HAU        -54.6240   -16.2750    21.2830 h1         1 H8U       0.047700
     60 HAV        -56.0200   -16.6050    20.2400 h1         1 H8U       0.047700
     61 HAT        -55.4700   -17.8320    21.3990 h1         1 H8U       0.047700
     62 HAF        -50.9470   -17.5770    19.3280 h1         1 H8U       0.052200
     63 HAE        -52.0600   -16.2450    19.6170 h1         1 H8U       0.052200
     64 HAL        -51.7040   -15.4400    16.8860 h1         1 H8U       0.044200
     65 HAK        -53.1810   -15.2840    17.8400 h1         1 H8U       0.044200
     66 HAN        -53.0430   -16.0070    14.9820 hc         1 H8U       0.067700
     67 HAM        -54.4780   -15.8190    15.9930 hc         1 H8U       0.067700
     68 HAQ        -55.7910   -17.9550    15.7340 hc         1 H8U       0.054033
     69 HAR        -54.8610   -18.1370    14.2320 hc         1 H8U       0.054033
     70 HAS        -54.9310   -19.4670    15.3950 hc         1 H8U       0.054033
     71 HAW        -51.7490   -18.1980    15.7920 ho         1 H8U       0.456000
@<TRIPOS>BOND
     1     1     2 2   
     2     2     3 1   
     3     2    17 1   
     4     3     4 1   
     5     3    37 1   
     6     4     5 ar  
     7     4    16 ar  
     8     5     6 1   
     9     5    13 ar  
    10     6     7 1   
    11     7     8 2   
    12     7    38 1   
    13     8     9 1   
    14     8    39 1   
    15     9    10 1   
    16     9    11 1   
    17     9    12 1   
    18    10    40 1   
    19    10    41 1   
    20    10    42 1   
    21    11    43 1   
    22    11    44 1   
    23    11    45 1   
    24    12    13 1   
    25    13    14 ar  
    26    14    15 ar  
    27    14    46 1   
    28    15    16 ar  
    29    15    47 1   
    30    16    17 1   
    31    17    18 1   
    32    17    19 1   
    33    18    29 1   
    34    18    48 1   
    35    18    49 1   
    36    19    20 1   
    37    19    21 1   
    38    19    22 1   
    39    20    50 1   
    40    20    51 1   
    41    20    52 1   
    42    21    53 1   
    43    21    54 1   
    44    21    55 1   
    45    22    23 1   
    46    22    29 1   
    47    22    56 1   
    48    23    24 1   
    49    23    57 1   
    50    23    58 1   
    51    24    25 1   
    52    24    31 1   
    53    24    34 1   
    54    25    26 2   
    55    25    27 1   
    56    27    28 1   
    57    27    29 1   
    58    28    59 1   
    59    28    60 1   
    60    28    61 1   
    61    29    30 1   
    62    30    31 1   
    63    30    62 1   
    64    30    63 1   
    65    31    32 1   
    66    32    33 1   
    67    32    64 1   
    68    32    65 1   
    69    33    34 1   
    70    33    66 1   
    71    33    67 1   
    72    34    35 1   
    73    34    36 1   
    74    35    68 1   
    75    35    69 1   
    76    35    70 1   
    77    36    71 1   
@<TRIPOS>SUBSTRUCTURE
     1 H8U         1 TEMP              0 ****  ****    0 ROOT
