@<TRIPOS>MOLECULE
H8V
   94    97     1     0     0
SMALL
No Charge or Current Charge


@<TRIPOS>ATOM
      1 C            0.0850     1.1470    32.9650 c3         1 H8V      -0.085100
      2 N           -0.4640    -1.5050    38.8390 nc         1 H8V      -0.532100
      3 O            1.7010     2.0260    41.6220 o          1 H8V      -0.602100
      4 C1          -0.7000    -0.1500    33.2580 c3         1 H8V      -0.019400
      5 N1           2.5420     0.0860    40.7950 ns         1 H8V      -0.507900
      6 O1          -5.0490    -1.1710    48.9930 os         1 H8V      -0.447000
      7 C2          -0.2150    -1.3220    32.3760 c3         1 H8V      -0.085100
      8 N2           2.1410    -0.1190    43.6230 ns         1 H8V      -0.480900
      9 O2          -1.0030     0.3300    43.9420 o          1 H8V      -0.619100
     10 C3          -0.6530    -0.5100    34.7440 ca         1 H8V      -0.061300
     11 C4           0.5730    -0.8110    35.3770 ca         1 H8V      -0.070000
     12 N4          -2.7790    -1.4120    47.5300 n3         1 H8V      -0.732600
     13 C5           0.5730    -1.1350    36.7420 ca         1 H8V      -0.176000
     14 C6          -0.5880    -1.1720    37.4930 ca         1 H8V       0.089400
     15 C7           0.8440    -1.7130    39.0520 cd         1 H8V       0.397200
     16 C8           1.3360    -2.0730    40.4270 c3         1 H8V      -0.098700
     17 C9           1.5130    -0.8360    41.3430 c3         1 H8V       0.022700
     18 C11          3.6440     2.1960    40.1900 c3         1 H8V      -0.155400
     19 C12          4.7570     2.6720    41.1480 c3         1 H8V      -0.084100
     20 C13          1.8160    -1.1950    42.8280 c          1 H8V       0.585100
     21 C14          2.4030    -0.1730    45.0660 c3         1 H8V       0.089700
     22 C15          1.1240     0.1640    45.8820 c3         1 H8V       0.086000
     23 C16         -0.9500    -0.6420    44.6840 c          1 H8V       0.600100
     24 C17         -1.9640    -1.8020    44.6060 c3         1 H8V      -0.137700
     25 C18         -3.3830    -1.3410    45.0400 c3         1 H8V      -0.071400
     26 C19         -3.4300    -0.6490    46.4260 c3         1 H8V       0.162800
     27 C20         -2.6240    -0.6050    48.7850 c6         1 H8V       0.127800
     28 C21         -3.9390    -0.4940    49.6320 c6         1 H8V       0.121100
     29 C22         -4.7690    -2.5590    48.6830 c6         1 H8V       0.121100
     30 C23         -3.4430    -2.7180    47.8610 c6         1 H8V       0.127800
     31 C24         -1.9650    -2.4590    43.2050 c3         1 H8V      -0.082100
     32 C25          3.6510     0.6880    45.4520 c6         1 H8V      -0.065700
     33 C26          3.4720     2.2100    45.1640 c6         1 H8V      -0.073900
     34 S            1.9880    -1.5340    37.6960 ss         1 H8V       0.015800
     35 C31         -1.8130    -0.8760    36.8750 ca         1 H8V      -0.052000
     36 C32         -1.8440    -0.5460    35.5050 ca         1 H8V      -0.111000
     37 C30          4.9490     0.1670    44.7670 c6         1 H8V      -0.073900
     38 C29          6.1910     0.9730    45.2210 c6         1 H8V      -0.073900
     39 C28          6.0090     2.4870    44.9550 c6         1 H8V      -0.075400
     40 C27          4.7140     3.0200    45.6140 c6         1 H8V      -0.073900
     41 H2          -0.2900     1.9710    33.5850 hc         1 H8V       0.036200
     42 H4           1.1540     1.0200    33.1730 hc         1 H8V       0.036200
     43 H3          -0.0250     1.4370    31.9130 hc         1 H8V       0.036200
     44 H5          -1.7420     0.0440    32.9750 hc         1 H8V       0.050700
     45 H12          3.3040    -0.3030    40.2490 hn         1 H8V       0.318500
     46 H7          -0.8000    -2.2260    32.5840 hc         1 H8V       0.036200
     47 H6          -0.3310    -1.0800    31.3130 hc         1 H8V       0.036200
     48 H8           0.8420    -1.5470    32.5610 hc         1 H8V       0.036200
     49 H18          2.0690     0.7900    43.1770 hn         1 H8V       0.340500
     50 H21         -0.0600    -1.5900    46.2510 hn         1 H8V       0.344500
     51 H9           1.5080    -0.7920    34.8210 ha         1 H8V       0.123000
     52 H10          0.6200    -2.7630    40.8890 hc         1 H8V       0.084200
     53 H11          2.2840    -2.6180    40.3580 hc         1 H8V       0.084200
     54 H            0.5550    -0.2990    41.3690 h1         1 H8V       0.107700
     55 H13          4.0960     1.5390    39.4370 hc         1 H8V       0.060200
     56 H14          3.2100     3.0770    39.7020 hc         1 H8V       0.060200
     57 H15          5.5380     3.2070    40.5940 hc         1 H8V       0.043367
     58 H16          4.3520     3.3500    41.9090 hc         1 H8V       0.043367
     59 H17          5.2200     1.8180    41.6550 hc         1 H8V       0.043367
     60 H1           2.6660    -1.2080    45.3210 h1         1 H8V       0.076700
     61 H19          1.3670     0.1450    46.9520 h1         1 H8V       0.056700
     62 H20          0.7830     1.1790    45.6380 h1         1 H8V       0.056700
     63 H55         -1.6450    -2.5720    45.3190 hc         1 H8V       0.065700
     64 H22         -3.7780    -0.6400    44.2950 hc         1 H8V       0.048700
     65 H23         -4.0620    -2.2010    45.0390 hc         1 H8V       0.048700
     66 H25         -2.9320     0.3250    46.3230 h1         1 H8V       0.044700
     67 H24         -4.4800    -0.4320    46.6640 h1         1 H8V       0.044700
     68 H26         -1.8550    -1.0670    49.4220 h1         1 H8V       0.057200
     69 H27         -2.2550     0.4050    48.5540 h1         1 H8V       0.057200
     70 H29         -3.7760    -0.9320    50.6270 h1         1 H8V       0.048950
     71 H28         -4.2020     0.5640    49.7700 h1         1 H8V       0.048950
     72 H30         -5.6120    -2.9670    48.1080 h1         1 H8V       0.048950
     73 H31         -4.6940    -3.1300    49.6200 h1         1 H8V       0.048950
     74 H33         -3.6460    -3.3080    46.9560 h1         1 H8V       0.057200
     75 H32         -2.7540    -3.3300    48.4610 h1         1 H8V       0.057200
     76 H35         -2.6590    -3.3080    43.1750 hc         1 H8V       0.044033
     77 H34         -2.2680    -1.7400    42.4330 hc         1 H8V       0.044033
     78 H50         -0.9650    -2.8310    42.9530 hc         1 H8V       0.044033
     79 H36          3.7740     0.5610    46.5370 hc         1 H8V       0.046700
     80 H38          3.2990     2.3760    44.0920 hc         1 H8V       0.045950
     81 H37          2.5870     2.5990    45.6850 hc         1 H8V       0.045950
     82 H47         -2.7340    -0.9000    37.4530 ha         1 H8V       0.131000
     83 H48         -2.7990    -0.3180    35.0360 ha         1 H8V       0.115000
     84 H46          4.8550     0.2300    43.6740 hc         1 H8V       0.045950
     85 H45          5.0970    -0.8960    45.0040 hc         1 H8V       0.045950
     86 H44          6.3700     0.8050    46.2920 hc         1 H8V       0.037950
     87 H43          7.0840     0.6080    44.6950 hc         1 H8V       0.037950
     88 H41          6.8770     3.0390    45.3400 hc         1 H8V       0.038200
     89 H42          5.9780     2.6720    43.8740 hc         1 H8V       0.038200
     90 H39          4.8090     2.9710    46.7070 hc         1 H8V       0.037950
     91 H40          4.5780     4.0800    45.3610 hc         1 H8V       0.037950
     92 C10          2.5360     1.4540    40.9390 c          1 H8V       0.602100
     93 N3           0.0210    -0.7780    45.6500 ns         1 H8V      -0.509900
     94 O3           1.8170    -2.3430    43.2550 o          1 H8V      -0.618100
@<TRIPOS>BOND
     1     1     4 1   
     2     1    41 1   
     3     1    42 1   
     4     1    43 1   
     5     2    14 1   
     6     2    15 2   
     7     3    92 2   
     8     4     7 1   
     9     4    10 1   
    10     4    44 1   
    11     5    17 1   
    12     5    45 1   
    13     5    92 1   
    14     6    28 1   
    15     6    29 1   
    16     7    46 1   
    17     7    47 1   
    18     7    48 1   
    19     8    20 1   
    20     8    21 1   
    21     8    49 1   
    22     9    23 2   
    23    10    11 ar  
    24    10    36 ar  
    25    11    13 ar  
    26    11    51 1   
    27    12    26 1   
    28    12    27 1   
    29    12    30 1   
    30    13    14 ar  
    31    13    34 1   
    32    14    35 ar  
    33    15    16 1   
    34    15    34 1   
    35    16    17 1   
    36    16    52 1   
    37    16    53 1   
    38    17    20 1   
    39    17    54 1   
    40    18    19 1   
    41    18    55 1   
    42    18    56 1   
    43    18    92 1   
    44    19    57 1   
    45    19    58 1   
    46    19    59 1   
    47    20    94 2   
    48    21    22 1   
    49    21    32 1   
    50    21    60 1   
    51    22    61 1   
    52    22    62 1   
    53    22    93 1   
    54    23    24 1   
    55    23    93 1   
    56    24    25 1   
    57    24    31 1   
    58    24    63 1   
    59    25    26 1   
    60    25    64 1   
    61    25    65 1   
    62    26    66 1   
    63    26    67 1   
    64    27    28 1   
    65    27    68 1   
    66    27    69 1   
    67    28    70 1   
    68    28    71 1   
    69    29    30 1   
    70    29    72 1   
    71    29    73 1   
    72    30    74 1   
    73    30    75 1   
    74    31    76 1   
    75    31    77 1   
    76    31    78 1   
    77    32    33 1   
    78    32    37 1   
    79    32    79 1   
    80    33    40 1   
    81    33    80 1   
    82    33    81 1   
    83    35    36 ar  
    84    35    82 1   
    85    36    83 1   
    86    37    38 1   
    87    37    84 1   
    88    37    85 1   
    89    38    39 1   
    90    38    86 1   
    91    38    87 1   
    92    39    40 1   
    93    39    88 1   
    94    39    89 1   
    95    40    90 1   
    96    40    91 1   
    97    50    93 1   
@<TRIPOS>SUBSTRUCTURE
     1 H8V         1 TEMP              0 ****  ****    0 ROOT
