@<TRIPOS>MOLECULE
H8V
   94    97     1     0     0
SMALL
abcg2


@<TRIPOS>ATOM
      1 C           -0.6330     1.1230    33.6020 c3         1 H8V      -0.085100
      2 N           -0.7040    -1.8310    39.2670 nc         1 H8V      -0.532100
      3 O            2.9370     1.6380    40.9800 o          1 H8V      -0.602100
      4 C1          -1.1030    -0.3170    33.8050 c3         1 H8V      -0.019400
      5 N1           3.0330    -0.6170    40.9900 ns         1 H8V      -0.507900
      6 O1          -4.1460    -2.3790    48.7400 os         1 H8V      -0.447000
      7 C2          -0.3340    -1.2770    32.8980 c3         1 H8V      -0.085100
      8 N2           1.9540     0.2260    43.7200 ns         1 H8V      -0.480900
      9 O2          -1.1040     1.2690    43.4960 o          1 H8V      -0.619100
     10 C3          -1.0120    -0.7300    35.2570 ca         1 H8V      -0.061300
     11 C4           0.2170    -0.7730    35.9040 ca         1 H8V      -0.070000
     12 N4          -2.3710    -1.5620    46.9010 n3         1 H8V      -0.732600
     13 C5           0.2570    -1.1510    37.2390 ca         1 H8V      -0.176000
     14 C6          -0.9050    -1.4880    37.9500 ca         1 H8V       0.089400
     15 C7           0.5390    -1.7640    39.5880 cd         1 H8V       0.397200
     16 C8           1.0500    -2.0490    40.9590 c3         1 H8V      -0.098700
     17 C9           1.7250    -0.8230    41.5720 c3         1 H8V       0.022700
     18 C11          4.9740     0.6210    40.2380 c3         1 H8V      -0.155400
     19 C12          5.8920     1.4740    41.1070 c3         1 H8V      -0.084100
     20 C13          1.8660    -0.9560    43.0940 c          1 H8V       0.585100
     21 C14          2.0270     0.4040    45.1530 c3         1 H8V       0.089700
     22 C15          0.6820     0.9330    45.6720 c3         1 H8V       0.086000
     23 C16         -1.2060     0.2920    44.2280 c          1 H8V       0.600100
     24 C17         -2.2600    -0.7870    44.0150 c3         1 H8V      -0.137700
     25 C18         -3.4890    -0.5590    44.9100 c3         1 H8V      -0.071400
     26 C19         -3.2350    -0.4920    46.4130 c3         1 H8V       0.162800
     27 C20         -1.9710    -1.4010    48.2990 c6         1 H8V       0.127800
     28 C21         -2.8430    -2.2340    49.2540 c6         1 H8V       0.121100
     29 C22         -4.1600    -3.1460    47.5500 c6         1 H8V       0.121100
     30 C23         -2.9000    -2.9000    46.7100 c6         1 H8V       0.127800
     31 C24         -2.6850    -0.8670    42.5560 c3         1 H8V      -0.082100
     32 C25          3.2130     1.2840    45.5690 c6         1 H8V      -0.065700
     33 C26          3.2180     2.6770    44.9320 c6         1 H8V      -0.073900
     34 S            1.6200    -1.2700    38.3010 ss         1 H8V       0.015800
     35 C31         -2.1350    -1.4450    37.2980 ca         1 H8V      -0.052000
     36 C32         -2.1720    -1.0670    35.9690 ca         1 H8V      -0.111000
     37 C30          4.5430     0.5800    45.2990 c6         1 H8V      -0.073900
     38 C29          5.7280     1.4060    45.7900 c6         1 H8V      -0.073900
     39 C28          5.7220     2.8020    45.1770 c6         1 H8V      -0.075400
     40 C27          4.3960     3.5070    45.4360 c6         1 H8V      -0.073900
     41 H2          -1.1940     1.8170    34.2290 hc         1 H8V       0.036200
     42 H4           0.4260     1.2340    33.8440 hc         1 H8V       0.036200
     43 H3          -0.7660     1.4270    32.5630 hc         1 H8V       0.036200
     44 H5          -2.1580    -0.3660    33.5200 hc         1 H8V       0.050700
     45 H12          3.6400    -1.4210    40.9260 hn         1 H8V       0.318500
     46 H7          -0.6830    -2.3030    33.0180 hc         1 H8V       0.036200
     47 H6          -0.4640    -0.9990    31.8510 hc         1 H8V       0.036200
     48 H8           0.7360    -1.2580    33.1130 hc         1 H8V       0.036200
     49 H18          1.8190     1.0550    43.1610 hn         1 H8V       0.340500
     50 H21         -0.6370    -0.7180    45.8770 hn         1 H8V       0.344500
     51 H9           1.1280    -0.5140    35.3800 ha         1 H8V       0.123000
     52 H10          0.1940    -2.3450    41.5660 hc         1 H8V       0.084200
     53 H11          1.7400    -2.8970    40.9460 hc         1 H8V       0.084200
     54 H            1.1210     0.0580    41.3480 h1         1 H8V       0.107700
     55 H13          5.3730    -0.3920    40.1520 hc         1 H8V       0.060200
     56 H14          4.9380     1.0290    39.2250 hc         1 H8V       0.060200
     57 H15          6.9000     1.4830    40.6950 hc         1 H8V       0.043367
     58 H16          5.5440     2.5050    41.1620 hc         1 H8V       0.043367
     59 H17          5.9510     1.0830    42.1240 hc         1 H8V       0.043367
     60 H1           2.1830    -0.5860    45.5870 h1         1 H8V       0.076700
     61 H19          0.7230     0.9940    46.7610 h1         1 H8V       0.056700
     62 H20          0.4930     1.9390    45.2990 h1         1 H8V       0.056700
     63 H55         -1.8110    -1.7450    44.2930 hc         1 H8V       0.065700
     64 H22         -3.9800     0.3730    44.6160 hc         1 H8V       0.048700
     65 H23         -4.2080    -1.3530    44.6860 hc         1 H8V       0.048700
     66 H25         -2.7400     0.4520    46.6520 h1         1 H8V       0.044700
     67 H24         -4.2080    -0.4540    46.9210 h1         1 H8V       0.044700
     68 H26         -0.9250    -1.7000    48.4240 h1         1 H8V       0.057200
     69 H27         -2.0270    -0.3420    48.5570 h1         1 H8V       0.057200
     70 H29         -2.3840    -3.2160    49.4330 h1         1 H8V       0.048950
     71 H28         -2.9260    -1.7420    50.2240 h1         1 H8V       0.048950
     72 H30         -5.0560    -2.8480    47.0010 h1         1 H8V       0.048950
     73 H31         -4.2530    -4.2180    47.7740 h1         1 H8V       0.048950
     74 H33         -3.1220    -3.0850    45.6580 h1         1 H8V       0.057200
     75 H32         -2.1140    -3.6110    46.9780 h1         1 H8V       0.057200
     76 H35         -3.3960    -1.6830    42.4220 hc         1 H8V       0.044033
     77 H34         -3.1700     0.0530    42.2270 hc         1 H8V       0.044033
     78 H50         -1.8410    -1.0560    41.8920 hc         1 H8V       0.044033
     79 H36          3.1220     1.4170    46.6550 hc         1 H8V       0.046700
     80 H38          3.2960     2.5880    43.8430 hc         1 H8V       0.045950
     81 H37          2.2840     3.2060    45.1390 hc         1 H8V       0.045950
     82 H47         -3.0420    -1.7000    37.8320 ha         1 H8V       0.131000
     83 H48         -3.1270    -1.0280    35.4590 ha         1 H8V       0.115000
     84 H46          4.6490     0.4050    44.2220 hc         1 H8V       0.045950
     85 H45          4.5450    -0.4040    45.7770 hc         1 H8V       0.045950
     86 H44          5.6830     1.4900    46.8810 hc         1 H8V       0.037950
     87 H43          6.6640     0.8930    45.5560 hc         1 H8V       0.037950
     88 H41          6.5510     3.3940    45.5720 hc         1 H8V       0.038200
     89 H42          5.8830     2.7230    44.0960 hc         1 H8V       0.038200
     90 H39          4.2800     3.6820    46.5110 hc         1 H8V       0.037950
     91 H40          4.3880     4.4900    44.9590 hc         1 H8V       0.037950
     92 C10          3.5610     0.6080    40.7710 c          1 H8V       0.602100
     93 N3          -0.4090     0.0760    45.2890 ns         1 H8V      -0.509900
     94 O3           1.9360    -2.0460    43.6390 o          1 H8V      -0.618100
@<TRIPOS>BOND
     1     1     4 1   
     2     1    41 1   
     3     1    42 1   
     4     1    43 1   
     5     2    14 1   
     6     2    15 2   
     7     3    92 2   
     8     4     7 1   
     9     4    10 1   
    10     4    44 1   
    11     5    17 1   
    12     5    45 1   
    13     5    92 1   
    14     6    28 1   
    15     6    29 1   
    16     7    46 1   
    17     7    47 1   
    18     7    48 1   
    19     8    20 1   
    20     8    21 1   
    21     8    49 1   
    22     9    23 2   
    23    10    11 ar  
    24    10    36 ar  
    25    11    13 ar  
    26    11    51 1   
    27    12    26 1   
    28    12    27 1   
    29    12    30 1   
    30    13    14 ar  
    31    13    34 1   
    32    14    35 ar  
    33    15    16 1   
    34    15    34 1   
    35    16    17 1   
    36    16    52 1   
    37    16    53 1   
    38    17    20 1   
    39    17    54 1   
    40    18    19 1   
    41    18    55 1   
    42    18    56 1   
    43    18    92 1   
    44    19    57 1   
    45    19    58 1   
    46    19    59 1   
    47    20    94 2   
    48    21    22 1   
    49    21    32 1   
    50    21    60 1   
    51    22    61 1   
    52    22    62 1   
    53    22    93 1   
    54    23    24 1   
    55    23    93 1   
    56    24    25 1   
    57    24    31 1   
    58    24    63 1   
    59    25    26 1   
    60    25    64 1   
    61    25    65 1   
    62    26    66 1   
    63    26    67 1   
    64    27    28 1   
    65    27    68 1   
    66    27    69 1   
    67    28    70 1   
    68    28    71 1   
    69    29    30 1   
    70    29    72 1   
    71    29    73 1   
    72    30    74 1   
    73    30    75 1   
    74    31    76 1   
    75    31    77 1   
    76    31    78 1   
    77    32    33 1   
    78    32    37 1   
    79    32    79 1   
    80    33    40 1   
    81    33    80 1   
    82    33    81 1   
    83    35    36 ar  
    84    35    82 1   
    85    36    83 1   
    86    37    38 1   
    87    37    84 1   
    88    37    85 1   
    89    38    39 1   
    90    38    86 1   
    91    38    87 1   
    92    39    40 1   
    93    39    88 1   
    94    39    89 1   
    95    40    90 1   
    96    40    91 1   
    97    50    93 1   
@<TRIPOS>SUBSTRUCTURE
     1 H8V         1 TEMP              0 ****  ****    0 ROOT
