@<TRIPOS>MOLECULE
H8W
   54    57     1     0     0
SMALL
No Charge or Current Charge


@<TRIPOS>ATOM
      1 C1          -0.7830     5.6850     0.2360 c3         1 H8W      -0.085600
      2 C2          -1.4540     4.4140    -0.3320 c3         1 H8W      -0.056700
      3 C3          -1.0420     4.1830    -1.8060 c3         1 H8W      -0.085600
      4 C7          -3.7920     0.6260    -0.5520 c6         1 H8W      -0.030100
      5 C8          -3.1330    -0.6590    -0.0690 ca         1 H8W       0.001700
      6 C9          -1.8840    -0.6270     0.6020 ca         1 H8W      -0.103300
      7 C10         -1.3040    -1.8430     1.0630 ca         1 H8W      -0.049000
      8 C11         -1.9450    -3.0820     0.8400 ca         1 H8W      -0.137000
      9 C12         -3.1650    -3.0650     0.1590 ca         1 H8W      -0.036200
     10 C13         -3.7320    -1.9110    -0.2740 ca         1 H8W      -0.233900
     11 C14         -4.9650    -2.3000    -0.9130 cc         1 H8W       0.349800
     12 C19          0.3420     0.5760     0.6000 ca         1 H8W      -0.122300
     13 C20          1.2640     0.6750     1.6610 ca         1 H8W      -0.099000
     14 C21          2.6420     0.5440     1.4170 ca         1 H8W      -0.123500
     15 C22          3.1160     0.3140     0.1120 ca         1 H8W      -0.036300
     16 C24          0.8170     0.3450    -0.7060 ca         1 H8W      -0.099000
     17 C27          6.6020    -1.3780    -0.2920 c          1 H8W       0.717000
     18 O28          7.3680    -1.2240     0.6470 o          1 H8W      -0.739500
     19 C4          -1.1490     3.1810     0.5660 c3         1 H8W       0.174800
     20 N5          -1.7410     1.8860     0.1230 n3         1 H8W      -0.728600
     21 C6          -3.2280     1.8710     0.1600 c6         1 H8W       0.175800
     22 N15         -5.1480    -3.6310    -0.8740 nd         1 H8W      -0.534100
     23 N16         -4.0090    -4.0940    -0.1990 na         1 H8W      -0.064400
     24 C18         -1.1680     0.7170     0.8630 c6         1 H8W       0.296100
     25 C23          2.1950     0.2140    -0.9480 ca         1 H8W      -0.123500
     26 C25          4.6100     0.1700    -0.1500 c3         1 H8W      -0.025100
     27 C26          5.0920    -1.2940    -0.0190 c3         1 H8W      -0.203400
     28 O29          6.9710    -1.5430    -1.4450 o          1 H8W      -0.739500
     29 H1          -1.0430     6.5640    -0.3670 hc         1 H8W       0.033700
     30 H2          -1.1160     5.8710     1.2650 hc         1 H8W       0.033700
     31 H3           0.3090     5.5820     0.2410 hc         1 H8W       0.033700
     32 H4          -2.5330     4.6010    -0.3150 hc         1 H8W       0.032700
     33 H5           0.0320     3.9710    -1.8820 hc         1 H8W       0.033700
     34 H6          -1.5890     3.3380    -2.2390 hc         1 H8W       0.033700
     35 H7          -1.2600     5.0700    -2.4140 hc         1 H8W       0.033700
     36 H8          -3.6340     0.7250    -1.6340 hc         1 H8W       0.053700
     37 H9          -4.8780     0.5810    -0.3950 hc         1 H8W       0.053700
     38 H10         -0.3560    -1.8290     1.5940 ha         1 H8W       0.128000
     39 H11         -1.5030    -4.0130     1.1880 ha         1 H8W       0.122000
     40 H12         -5.7290    -1.7060    -1.3970 h4         1 H8W       0.041800
     41 H13          0.9140     0.8530     2.6750 ha         1 H8W       0.103500
     42 H14          3.3430     0.6200     2.2450 ha         1 H8W       0.114500
     43 H15          0.1140     0.2680    -1.5320 ha         1 H8W       0.103500
     44 H16         -0.0550     3.0920     0.6100 h1         1 H8W       0.035700
     45 H17         -1.4840     3.4030     1.5880 h1         1 H8W       0.035700
     46 H19         -3.6510     2.7550    -0.3340 h1         1 H8W       0.028200
     47 H20         -3.5790     1.8830     1.2030 h1         1 H8W       0.028200
     48 H22         -1.2960     0.9090     1.9390 h1         1 H8W       0.026700
     49 H23          2.5470     0.0330    -1.9610 ha         1 H8W       0.114500
     50 H24          4.8520     0.5400    -1.1550 hc         1 H8W       0.052200
     51 H25          5.1750     0.8000     0.5480 hc         1 H8W       0.052200
     52 H26          4.5310    -1.8620    -0.7710 hc         1 H8W       0.020200
     53 H27          4.8700    -1.5910     1.0140 hc         1 H8W       0.020200
     54 H18         -3.8610    -5.0850    -0.0130 hn         1 H8W       0.371000
@<TRIPOS>BOND
     1     1     2 1   
     2     1    29 1   
     3     1    30 1   
     4     1    31 1   
     5     2     3 1   
     6     2    19 1   
     7     2    32 1   
     8     3    33 1   
     9     3    34 1   
    10     3    35 1   
    11     4     5 1   
    12     4    21 1   
    13     4    36 1   
    14     4    37 1   
    15     5     6 ar  
    16     5    10 ar  
    17     6     7 ar  
    18     6    24 1   
    19     7     8 ar  
    20     7    38 1   
    21     8     9 ar  
    22     8    39 1   
    23     9    10 ar  
    24     9    23 1   
    25    10    11 1   
    26    11    22 2   
    27    11    40 1   
    28    12    13 ar  
    29    12    16 ar  
    30    12    24 1   
    31    13    14 ar  
    32    13    41 1   
    33    14    15 ar  
    34    14    42 1   
    35    15    25 ar  
    36    15    26 1   
    37    16    25 ar  
    38    16    43 1   
    39    17    18 1   
    40    17    27 1   
    41    17    28 1   
    42    19    20 1   
    43    19    44 1   
    44    19    45 1   
    45    20    21 1   
    46    20    24 1   
    47    21    46 1   
    48    21    47 1   
    49    22    23 1   
    50    23    54 1   
    51    24    48 1   
    52    25    49 1   
    53    26    27 1   
    54    26    50 1   
    55    26    51 1   
    56    27    52 1   
    57    27    53 1   
@<TRIPOS>SUBSTRUCTURE
     1 H8W         1 TEMP              0 ****  ****    0 ROOT
