@<TRIPOS>MOLECULE
H8W
   54    57     1     0     0
SMALL
abcg2


@<TRIPOS>ATOM
      1 C1          -0.8080     5.5670     0.2130 c3         1 H8W      -0.085600
      2 C2          -1.3780     4.2690    -0.3480 c3         1 H8W      -0.056700
      3 C3          -0.6760     3.8650    -1.6390 c3         1 H8W      -0.085600
      4 C7          -3.7330     0.6740    -0.5440 c6         1 H8W      -0.030100
      5 C8          -3.0640    -0.5830    -0.0850 ca         1 H8W       0.001700
      6 C9          -1.9060    -0.5420     0.6620 ca         1 H8W      -0.103300
      7 C10         -1.3280    -1.7430     1.1470 ca         1 H8W      -0.049000
      8 C11         -1.8540    -2.9840     0.8890 ca         1 H8W      -0.137000
      9 C12         -3.0140    -3.0190     0.1050 ca         1 H8W      -0.036200
     10 C13         -3.6160    -1.8470    -0.3720 ca         1 H8W      -0.233900
     11 C14         -4.7490    -2.3090    -1.0940 cc         1 H8W       0.349800
     12 C19          0.2620     0.6660     0.6780 ca         1 H8W      -0.122300
     13 C20          1.2170     0.6420     1.6850 ca         1 H8W      -0.099000
     14 C21          2.5690     0.5270     1.3820 ca         1 H8W      -0.123500
     15 C22          3.0040     0.4380     0.0630 ca         1 H8W      -0.036300
     16 C24          0.6900     0.5830    -0.6430 ca         1 H8W      -0.099000
     17 C27          6.3790    -1.4680    -0.4620 c          1 H8W       0.717000
     18 O28          7.1130    -0.4910    -0.7070 o          1 H8W      -0.739500
     19 C4          -1.2790     3.1700     0.7100 c3         1 H8W       0.174800
     20 N5          -1.7990     1.8870     0.2690 n3         1 H8W      -0.728600
     21 C6          -3.2460     1.8520     0.2720 c6         1 H8W       0.175800
     22 N15         -4.8220    -3.6180    -1.0600 nd         1 H8W      -0.534100
     23 N16         -3.7810    -4.0410    -0.3410 na         1 H8W      -0.064400
     24 C18         -1.2160     0.7710     0.9960 c6         1 H8W       0.296100
     25 C23          2.0380     0.4700    -0.9440 ca         1 H8W      -0.123500
     26 C25          4.4620     0.2670    -0.2580 c3         1 H8W      -0.025100
     27 C26          4.8920    -1.1940    -0.1680 c3         1 H8W      -0.203400
     28 O29          6.7280    -2.6670    -0.4230 o          1 H8W      -0.739500
     29 H1          -0.8950     6.3800    -0.5090 hc         1 H8W       0.033700
     30 H2          -1.3310     5.8730     1.1210 hc         1 H8W       0.033700
     31 H3           0.2510     5.4580     0.4620 hc         1 H8W       0.033700
     32 H4          -2.4340     4.4500    -0.5790 hc         1 H8W       0.032700
     33 H5           0.3830     3.6610    -1.4630 hc         1 H8W       0.033700
     34 H6          -1.1150     2.9600    -2.0580 hc         1 H8W       0.033700
     35 H7          -0.7440     4.6580    -2.3860 hc         1 H8W       0.033700
     36 H8          -3.5230     0.8460    -1.6040 hc         1 H8W       0.053700
     37 H9          -4.8180     0.5780    -0.4520 hc         1 H8W       0.053700
     38 H10         -0.4270    -1.6790     1.7440 ha         1 H8W       0.128000
     39 H11         -1.3910    -3.8840     1.2720 ha         1 H8W       0.122000
     40 H12         -5.4920    -1.7350    -1.6260 h4         1 H8W       0.041800
     41 H13          0.9060     0.7230     2.7210 ha         1 H8W       0.103500
     42 H14          3.2960     0.5120     2.1870 ha         1 H8W       0.114500
     43 H15         -0.0420     0.6210    -1.4410 ha         1 H8W       0.103500
     44 H16         -0.2220     3.0490     0.9610 h1         1 H8W       0.035700
     45 H17         -1.7780     3.5020     1.6360 h1         1 H8W       0.035700
     46 H19         -3.6270     2.7770    -0.1620 h1         1 H8W       0.028200
     47 H20         -3.6510     1.7940     1.2970 h1         1 H8W       0.028200
     48 H22         -1.3110     0.9200     2.0890 h1         1 H8W       0.026700
     49 H23          2.3480     0.4100    -1.9810 ha         1 H8W       0.114500
     50 H24          4.6670     0.6490    -1.2610 hc         1 H8W       0.052200
     51 H25          5.0640     0.8670     0.4290 hc         1 H8W       0.052200
     52 H26          4.2850    -1.7990    -0.8510 hc         1 H8W       0.020200
     53 H27          4.6630    -1.5810     0.8310 hc         1 H8W       0.020200
     54 H18         -3.6480    -5.0270    -0.1880 hn         1 H8W       0.371000
@<TRIPOS>BOND
     1     1     2 1   
     2     1    29 1   
     3     1    30 1   
     4     1    31 1   
     5     2     3 1   
     6     2    19 1   
     7     2    32 1   
     8     3    33 1   
     9     3    34 1   
    10     3    35 1   
    11     4     5 1   
    12     4    21 1   
    13     4    36 1   
    14     4    37 1   
    15     5     6 ar  
    16     5    10 ar  
    17     6     7 ar  
    18     6    24 1   
    19     7     8 ar  
    20     7    38 1   
    21     8     9 ar  
    22     8    39 1   
    23     9    10 ar  
    24     9    23 1   
    25    10    11 1   
    26    11    22 2   
    27    11    40 1   
    28    12    13 ar  
    29    12    16 ar  
    30    12    24 1   
    31    13    14 ar  
    32    13    41 1   
    33    14    15 ar  
    34    14    42 1   
    35    15    25 ar  
    36    15    26 1   
    37    16    25 ar  
    38    16    43 1   
    39    17    18 1   
    40    17    27 1   
    41    17    28 1   
    42    19    20 1   
    43    19    44 1   
    44    19    45 1   
    45    20    21 1   
    46    20    24 1   
    47    21    46 1   
    48    21    47 1   
    49    22    23 1   
    50    23    54 1   
    51    24    48 1   
    52    25    49 1   
    53    26    27 1   
    54    26    50 1   
    55    26    51 1   
    56    27    52 1   
    57    27    53 1   
@<TRIPOS>SUBSTRUCTURE
     1 H8W         1 TEMP              0 ****  ****    0 ROOT
