@<TRIPOS>MOLECULE
H8X
   50    53     1     0     0
SMALL
abcg2


@<TRIPOS>ATOM
      1 C15         31.4580    -5.0480   -29.8330 c3         1 H8X       0.053600
      2 C17         29.6230    -6.7060   -29.3430 ca         1 H8X      -0.003200
      3 C20         28.2310    -8.9480   -28.4990 ca         1 H8X      -0.143000
      4 C21         27.5300    -7.9260   -29.1250 ca         1 H8X      -0.052000
      5 C22         28.2230    -6.7930   -29.5520 cp         1 H8X      -0.083000
      6 C24         29.0030    -4.7940   -30.3690 ca         1 H8X      -0.003200
      7 C26         27.7390    -3.0660   -31.4130 ca         1 H8X      -0.079000
      8 C28         26.6040    -5.0720   -30.6620 ca         1 H8X      -0.052000
      9 C02         32.2540    -5.5660   -31.0350 c3         1 H8X       0.130300
     10 C03         33.6490    -4.9510   -31.1240 c3         1 H8X       0.227800
     11 C05         34.6750    -4.3120   -28.8920 c3         1 H8X       0.210500
     12 C06         35.1500    -2.9730   -29.3200 cc         1 H8X       0.095300
     13 C07         34.5660    -1.7470   -29.3190 cd         1 H8X      -0.161000
     14 C08         35.5310    -0.8310   -29.8540 cd         1 H8X      -0.190000
     15 C09         36.6300    -1.5680   -30.1480 cc         1 H8X       0.143900
     16 C12         34.5830    -7.7440   -28.8700 c3         1 H8X      -0.379100
     17 C18         30.3290    -7.7290   -28.7130 ca         1 H8X      -0.142500
     18 C19         29.6150    -8.8460   -28.2960 ca         1 H8X      -0.079000
     19 C23         27.8260    -5.5690   -30.2080 cp         1 H8X      -0.083000
     20 C25         28.9690    -3.5380   -30.9730 ca         1 H8X      -0.142500
     21 C27         26.5660    -3.8210   -31.2630 ca         1 H8X      -0.143000
     22 N04         34.5460    -5.2620   -30.0120 n3         1 H8X      -0.809500
     23 N16         30.0800    -5.4940   -29.8410 na         1 H8X      -0.121600
     24 O01         31.6220    -5.2160   -32.2660 oh         1 H8X      -0.655000
     25 O10         36.4180    -2.8790   -29.8270 os         1 H8X      -0.231000
     26 O13         36.7150    -6.3730   -29.4270 o          1 H8X      -0.537000
     27 O14         35.3340    -7.2150   -31.3200 o          1 H8X      -0.537000
     28 S11         35.4120    -6.6470   -29.9930 s6         1 H8X       1.261100
     29 H1          31.9260    -5.3890   -28.9090 h1         1 H8X       0.063200
     30 H2          31.4670    -3.9580   -29.8300 h1         1 H8X       0.063200
     31 H3          27.7070    -9.8340   -28.1630 ha         1 H8X       0.116000
     32 H4          26.4600    -8.0050   -29.2780 ha         1 H8X       0.117500
     33 H5          27.6880    -2.0940   -31.8860 ha         1 H8X       0.113500
     34 H6          25.6980    -5.6550   -30.5470 ha         1 H8X       0.117500
     35 H7          32.3370    -6.6560   -30.9660 h1         1 H8X       0.041700
     36 H8          34.1050    -5.2750   -32.0550 h1         1 H8X       0.086700
     37 H9          33.5600    -3.8640   -31.1630 h1         1 H8X       0.086700
     38 H10         33.7150    -4.1840   -28.3920 h1         1 H8X       0.066200
     39 H11         35.3650    -4.7430   -28.1670 h1         1 H8X       0.066200
     40 H12         33.5670    -1.5250   -28.9820 ha         1 H8X       0.139000
     41 H13         35.4140     0.2300   -30.0020 ha         1 H8X       0.145000
     42 H14         37.5940    -1.3330   -30.5650 h4         1 H8X       0.058100
     43 H15         33.5950    -7.9620   -29.2680 h1         1 H8X       0.100367
     44 H16         35.1820    -8.6520   -28.8020 h1         1 H8X       0.100367
     45 H17         34.5140    -7.2600   -27.8980 h1         1 H8X       0.100367
     46 H18         31.3950    -7.6630   -28.5490 ha         1 H8X       0.116000
     47 H19         30.1420    -9.6540   -27.8040 ha         1 H8X       0.113500
     48 H20         29.8670    -2.9520   -31.1110 ha         1 H8X       0.116000
     49 H21         25.6260    -3.4220   -31.6210 ha         1 H8X       0.116000
     50 H22         30.7720    -5.6710   -32.3170 ho         1 H8X       0.462000
@<TRIPOS>BOND
     1     1     9 1   
     2     1    23 1   
     3     1    29 1   
     4     1    30 1   
     5     2     5 ar  
     6     2    17 ar  
     7     2    23 1   
     8     3     4 ar  
     9     3    18 ar  
    10     3    31 1   
    11     4     5 ar  
    12     4    32 1   
    13     5    19 1   
    14     6    19 ar  
    15     6    20 ar  
    16     6    23 1   
    17     7    20 ar  
    18     7    21 ar  
    19     7    33 1   
    20     8    19 ar  
    21     8    21 ar  
    22     8    34 1   
    23     9    10 1   
    24     9    24 1   
    25     9    35 1   
    26    10    22 1   
    27    10    36 1   
    28    10    37 1   
    29    11    12 1   
    30    11    22 1   
    31    11    38 1   
    32    11    39 1   
    33    12    13 2   
    34    12    25 1   
    35    13    14 1   
    36    13    40 1   
    37    14    15 2   
    38    14    41 1   
    39    15    25 1   
    40    15    42 1   
    41    16    28 1   
    42    16    43 1   
    43    16    44 1   
    44    16    45 1   
    45    17    18 ar  
    46    17    46 1   
    47    18    47 1   
    48    20    48 1   
    49    21    49 1   
    50    22    28 1   
    51    24    50 1   
    52    26    28 2   
    53    27    28 2   
@<TRIPOS>SUBSTRUCTURE
     1 H8X         1 TEMP              0 ****  ****    0 ROOT
