@<TRIPOS>MOLECULE
H8X
   50    53     1     0     0
SMALL
No Charge or Current Charge


@<TRIPOS>ATOM
      1 C15         31.6530    -4.5910   -30.1430 c3         1 H8X       0.053600
      2 C17         29.9110    -6.1330   -29.1510 ca         1 H8X      -0.003200
      3 C20         28.6260    -8.2480   -27.8950 ca         1 H8X      -0.143000
      4 C21         27.8980    -7.4420   -28.7990 ca         1 H8X      -0.052000
      5 C22         28.5670    -6.3730   -29.4260 cp         1 H8X      -0.083000
      6 C24         29.1760    -4.5300   -30.6890 ca         1 H8X      -0.003200
      7 C26         27.8140    -3.2430   -32.1910 ca         1 H8X      -0.079000
      8 C28         26.8520    -5.1630   -30.9880 ca         1 H8X      -0.052000
      9 C02         32.4130    -5.4410   -31.1960 c3         1 H8X       0.130300
     10 C03         33.9070    -5.0210   -31.3810 c3         1 H8X       0.227800
     11 C05         34.8890    -4.9720   -29.0280 c3         1 H8X       0.210500
     12 C06         34.8440    -3.4600   -28.9780 cc         1 H8X       0.095300
     13 C07         33.9750    -2.6090   -28.3500 cd         1 H8X      -0.161000
     14 C08         34.4000    -1.2970   -28.6430 cd         1 H8X      -0.190000
     15 C09         35.5120    -1.3980   -29.4330 cc         1 H8X       0.143900
     16 C12         34.4330    -8.0270   -29.2000 c3         1 H8X      -0.379100
     17 C18         30.6560    -6.9120   -28.2570 ca         1 H8X      -0.142500
     18 C19         29.9930    -7.9850   -27.6250 ca         1 H8X      -0.079000
     19 C23         28.1070    -5.3720   -30.3860 cp         1 H8X      -0.083000
     20 C25         29.0700    -3.4580   -31.5840 ca         1 H8X      -0.142500
     21 C27         26.7150    -4.0880   -31.8950 ca         1 H8X      -0.143000
     22 N04         34.9020    -5.5520   -30.3970 n3         1 H8X      -0.809500
     23 N16         30.2560    -5.0210   -29.9350 na         1 H8X      -0.121600
     24 O01         31.7320    -5.3430   -32.4620 oh         1 H8X      -0.655000
     25 O10         35.8040    -2.7270   -29.6450 os         1 H8X      -0.231000
     26 O13         36.7720    -7.3020   -30.2800 o          1 H8X      -0.537000
     27 O14         34.7740    -7.7080   -31.7830 o          1 H8X      -0.537000
     28 S11         35.3280    -7.2190   -30.5180 s6         1 H8X       1.261100
     29 H1          32.1630    -4.6590   -29.1780 h1         1 H8X       0.063200
     30 H2          31.6680    -3.5360   -30.4410 h1         1 H8X       0.063200
     31 H3          28.1300    -9.0790   -27.3980 ha         1 H8X       0.116000
     32 H4          26.8490    -7.6400   -29.0050 ha         1 H8X       0.117500
     33 H5          27.6880    -2.4200   -32.8920 ha         1 H8X       0.113500
     34 H6          26.0100    -5.8120   -30.7600 ha         1 H8X       0.117500
     35 H7          32.3880    -6.4870   -30.8680 h1         1 H8X       0.041700
     36 H8          34.2120    -5.3260   -32.3920 h1         1 H8X       0.086700
     37 H9          33.9450    -3.9240   -31.4010 h1         1 H8X       0.086700
     38 H10         34.0430    -5.3640   -28.4490 h1         1 H8X       0.066200
     39 H11         35.7970    -5.2790   -28.4910 h1         1 H8X       0.066200
     40 H12         33.1220    -2.8940   -27.7420 ha         1 H8X       0.139000
     41 H13         33.9380    -0.3740   -28.3080 ha         1 H8X       0.145000
     42 H14         36.1560    -0.6550   -29.8850 h4         1 H8X       0.058100
     43 H15         33.3690    -7.8230   -29.3430 h1         1 H8X       0.100367
     44 H16         34.6390    -9.0990   -29.2840 h1         1 H8X       0.100367
     45 H17         34.7980    -7.6350   -28.2470 h1         1 H8X       0.100367
     46 H18         31.7010    -6.7000   -28.0500 ha         1 H8X       0.116000
     47 H19         30.5350    -8.6160   -26.9230 ha         1 H8X       0.113500
     48 H20         29.9170    -2.8130   -31.8060 ha         1 H8X       0.116000
     49 H21         25.7540    -3.9080   -32.3720 ha         1 H8X       0.116000
     50 H22         30.7750    -5.4800   -32.2800 ho         1 H8X       0.462000
@<TRIPOS>BOND
     1     1     9 1   
     2     1    23 1   
     3     1    29 1   
     4     1    30 1   
     5     2     5 ar  
     6     2    17 ar  
     7     2    23 1   
     8     3     4 ar  
     9     3    18 ar  
    10     3    31 1   
    11     4     5 ar  
    12     4    32 1   
    13     5    19 1   
    14     6    19 ar  
    15     6    20 ar  
    16     6    23 1   
    17     7    20 ar  
    18     7    21 ar  
    19     7    33 1   
    20     8    19 ar  
    21     8    21 ar  
    22     8    34 1   
    23     9    10 1   
    24     9    24 1   
    25     9    35 1   
    26    10    22 1   
    27    10    36 1   
    28    10    37 1   
    29    11    12 1   
    30    11    22 1   
    31    11    38 1   
    32    11    39 1   
    33    12    13 2   
    34    12    25 1   
    35    13    14 1   
    36    13    40 1   
    37    14    15 2   
    38    14    41 1   
    39    15    25 1   
    40    15    42 1   
    41    16    28 1   
    42    16    43 1   
    43    16    44 1   
    44    16    45 1   
    45    17    18 ar  
    46    17    46 1   
    47    18    47 1   
    48    20    48 1   
    49    21    49 1   
    50    22    28 1   
    51    24    50 1   
    52    26    28 2   
    53    27    28 2   
@<TRIPOS>SUBSTRUCTURE
     1 H8X         1 TEMP              0 ****  ****    0 ROOT
