@<TRIPOS>MOLECULE
H8Z
   38    40     1     0     0
SMALL
No Charge or Current Charge


@<TRIPOS>ATOM
      1 N1           3.7480    -2.1680    -0.6010 nb         1 H8Z      -0.310000
      2 C2           2.5450    -2.5270    -1.1160 ca         1 H8Z       0.199900
      3 C5           2.6670    -0.1750     0.0840 ca         1 H8Z      -0.378900
      4 C6           3.7990    -0.9740     0.0060 ca         1 H8Z       0.464900
      5 C4           1.4930    -0.6100    -0.4590 ca         1 H8Z       0.159500
      6 CAJ          2.4030     1.1210     0.6490 cc         1 H8Z       0.444800
      7 CAK          3.3270     1.9790     1.3140 cg         1 H8Z      -0.137200
      8 CAL          4.1390     2.6960     1.8690 c1         1 H8Z      -0.210000
      9 CAM         -0.8300     0.3520    -0.6410 c6         1 H8Z       0.080300
     10 CAN         -1.1040     1.3530    -1.7990 c6         1 H8Z      -0.086400
     11 CAO         -2.6020     1.3420    -2.2030 c6         1 H8Z      -0.099400
     12 CAP         -3.5190     1.5600    -0.9720 c6         1 H8Z       0.088000
     13 CAR         -1.7950     0.6290     0.5410 c6         1 H8Z       0.091000
     14 CAU         -3.7280    -1.5100     1.4240 ce         1 H8Z      -0.297200
     15 CAV         -4.5460    -2.1020     2.3290 c2         1 H8Z      -0.233000
     16 N3           1.3990    -1.8030    -1.0770 nb         1 H8Z      -0.232000
     17 NAG          4.9970    -0.6210     0.5190 nv         1 H8Z      -1.065900
     18 NAH          0.5880     0.4070    -0.2080 na         1 H8Z      -0.016100
     19 NAI          1.1310     1.4940     0.4770 nd         1 H8Z      -0.503100
     20 NAQ         -3.2120     0.5590     0.0850 n          1 H8Z      -0.406800
     21 OAT         -5.3350    -0.3050     0.1820 o          1 H8Z      -0.606100
     22 H1           2.4930    -3.4950    -1.6110 h5         1 H8Z       0.048100
     23 H2           4.8470     3.3330     2.3610 ha         1 H8Z       0.262000
     24 H3          -1.0390    -0.6630    -1.0080 h1         1 H8Z       0.093700
     25 H4          -0.8180     2.3680    -1.4900 hc         1 H8Z       0.060700
     26 H5          -0.4790     1.1030    -2.6670 hc         1 H8Z       0.060700
     27 H6          -2.7950     2.1180    -2.9550 hc         1 H8Z       0.055200
     28 H7          -2.8500     0.3810    -2.6750 hc         1 H8Z       0.055200
     29 H8          -3.3610     2.5700    -0.5680 h1         1 H8Z       0.065700
     30 H9          -4.5700     1.4970    -1.2870 h1         1 H8Z       0.065700
     31 H10         -1.5860    -0.0550     1.3710 h1         1 H8Z       0.066200
     32 H11         -1.6060     1.6410     0.9280 h1         1 H8Z       0.066200
     33 H12         -2.6800    -1.7950     1.3910 ha         1 H8Z       0.181000
     34 H14         -5.5980    -1.8270     2.4250 ha         1 H8Z       0.175500
     35 H15         -4.1860    -2.8810     3.0040 ha         1 H8Z       0.175500
     36 H17          5.1390     0.3500     0.7850 hn         1 H8Z       0.506500
     37 H18          5.8190    -1.1400     0.2230 hn         1 H8Z       0.506500
     38 CAS         -4.1590    -0.4060     0.5050 c          1 H8Z       0.609300
@<TRIPOS>BOND
     1     1     2 ar  
     2     1     4 ar  
     3     2    16 ar  
     4     2    22 1   
     5     3     4 ar  
     6     3     5 ar  
     7     3     6 1   
     8     4    17 1   
     9     5    16 ar  
    10     5    18 1   
    11     6     7 1   
    12     6    19 2   
    13     7     8 3   
    14     8    23 1   
    15     9    10 1   
    16     9    13 1   
    17     9    18 1   
    18     9    24 1   
    19    10    11 1   
    20    10    25 1   
    21    10    26 1   
    22    11    12 1   
    23    11    27 1   
    24    11    28 1   
    25    12    20 1   
    26    12    29 1   
    27    12    30 1   
    28    13    20 1   
    29    13    31 1   
    30    13    32 1   
    31    14    15 2   
    32    14    33 1   
    33    14    38 1   
    34    15    34 1   
    35    15    35 1   
    36    17    36 1   
    37    17    37 1   
    38    18    19 1   
    39    20    38 1   
    40    21    38 2   
@<TRIPOS>SUBSTRUCTURE
     1 H8Z         1 TEMP              0 ****  ****    0 ROOT
