@<TRIPOS>MOLECULE
H8Z
   38    40     1     0     0
SMALL
abcg2


@<TRIPOS>ATOM
      1 N1           3.4530    -2.3220    -0.2100 nb         1 H8Z      -0.310000
      2 C2           2.2250    -2.6400    -0.6200 ca         1 H8Z       0.199900
      3 C5           2.6450    -0.1310     0.1150 ca         1 H8Z      -0.378900
      4 C6           3.7030    -1.0670     0.1680 ca         1 H8Z       0.464900
      5 C4           1.4210    -0.6130    -0.3360 ca         1 H8Z       0.159500
      6 CAJ          2.4070     1.2380     0.3930 cc         1 H8Z       0.444800
      7 CAK          3.3320     2.1960     0.8810 cg         1 H8Z      -0.137200
      8 CAL          4.1530     2.9700     1.2970 c1         1 H8Z      -0.210000
      9 CAM         -0.8410     0.4220    -0.6610 c6         1 H8Z       0.080300
     10 CAN         -1.1620     1.4420    -1.7500 c6         1 H8Z      -0.086400
     11 CAO         -2.6620     1.4700    -2.0270 c6         1 H8Z      -0.099400
     12 CAP         -3.4560     1.6630    -0.7410 c6         1 H8Z       0.088000
     13 CAR         -1.7010     0.6720     0.5840 c6         1 H8Z       0.091000
     14 CAU         -3.5020    -1.5090     1.3410 ce         1 H8Z      -0.297200
     15 CAV         -4.3520    -2.4440     1.7530 c2         1 H8Z      -0.233000
     16 N3           1.1620    -1.8670    -0.7160 nb         1 H8Z      -0.232000
     17 NAG          4.9270    -0.7500     0.5780 nv         1 H8Z      -1.065900
     18 NAH          0.5640     0.4310    -0.3110 na         1 H8Z      -0.016100
     19 NAI          1.1530     1.5450     0.1300 nd         1 H8Z      -0.503100
     20 NAQ         -3.1000     0.6250     0.2170 n          1 H8Z      -0.406800
     21 OAT         -5.1280    -0.3510     0.0880 o          1 H8Z      -0.606100
     22 H1           2.0900    -3.6760    -0.9130 h5         1 H8Z       0.048100
     23 H2           4.8770     3.6620     1.6640 ha         1 H8Z       0.262000
     24 H3          -1.0480    -0.5860    -1.0270 h1         1 H8Z       0.093700
     25 H4          -0.8330     2.4310    -1.4200 hc         1 H8Z       0.060700
     26 H5          -0.6080     1.1990    -2.6590 hc         1 H8Z       0.060700
     27 H6          -2.8930     2.2780    -2.7230 hc         1 H8Z       0.055200
     28 H7          -2.9750     0.5370    -2.5050 hc         1 H8Z       0.055200
     29 H8          -3.2190     2.6340    -0.2970 h1         1 H8Z       0.065700
     30 H9          -4.5250     1.6370    -0.9290 h1         1 H8Z       0.065700
     31 H10         -1.4620    -0.0430     1.3650 h1         1 H8Z       0.066200
     32 H11         -1.4800     1.6640     0.9880 h1         1 H8Z       0.066200
     33 H12         -2.4610    -1.6010     1.6140 ha         1 H8Z       0.181000
     34 H14         -5.4060    -2.4120     1.5120 ha         1 H8Z       0.175500
     35 H15         -4.0110    -3.2760     2.3530 ha         1 H8Z       0.175500
     36 H17          5.1710     0.1860     0.8550 hn         1 H8Z       0.506500
     37 H18          5.6520    -1.4480     0.5840 hn         1 H8Z       0.506500
     38 CAS         -3.9740    -0.3730     0.5000 c          1 H8Z       0.609300
@<TRIPOS>BOND
     1     1     2 ar  
     2     1     4 ar  
     3     2    16 ar  
     4     2    22 1   
     5     3     4 ar  
     6     3     5 ar  
     7     3     6 1   
     8     4    17 1   
     9     5    16 ar  
    10     5    18 1   
    11     6     7 1   
    12     6    19 2   
    13     7     8 3   
    14     8    23 1   
    15     9    10 1   
    16     9    13 1   
    17     9    18 1   
    18     9    24 1   
    19    10    11 1   
    20    10    25 1   
    21    10    26 1   
    22    11    12 1   
    23    11    27 1   
    24    11    28 1   
    25    12    20 1   
    26    12    29 1   
    27    12    30 1   
    28    13    20 1   
    29    13    31 1   
    30    13    32 1   
    31    14    15 2   
    32    14    33 1   
    33    14    38 1   
    34    15    34 1   
    35    15    35 1   
    36    17    36 1   
    37    17    37 1   
    38    18    19 1   
    39    20    38 1   
    40    21    38 2   
@<TRIPOS>SUBSTRUCTURE
     1 H8Z         1 TEMP              0 ****  ****    0 ROOT
