@<TRIPOS>MOLECULE
H90
   50    54     1     0     0
SMALL
abcg2


@<TRIPOS>ATOM
      1 C1           5.8340     3.1830     1.3230 ca         1 H90       0.322900
      2 C2           5.6620     2.4170     0.1790 ca         1 H90      -0.138000
      3 C3           4.3730     2.1770    -0.2810 ca         1 H90      -0.069300
      4 C4           3.3180     2.7250     0.4390 ca         1 H90      -0.138000
      5 C5           3.5960     3.4760     1.5710 ca         1 H90       0.322900
      6 N6           4.8280     3.7060     2.0130 nb         1 H90      -0.674000
      7 C7           4.1240     1.3120    -1.4880 c3         1 H90       0.149900
      8 N8           3.9320    -0.0660    -1.1070 na         1 H90      -0.057100
      9 C9           2.7690    -0.6610    -0.7480 ca         1 H90       0.356500
     10 C10          3.0950    -1.9540    -0.3010 ca         1 H90      -0.217900
     11 C11          4.5090    -2.0070    -0.4230 cc         1 H90       0.416800
     12 N12          4.9760    -0.8760    -0.8900 nd         1 H90      -0.565100
     13 N13          1.5650    -0.1200    -0.8170 nb         1 H90      -0.727000
     14 C14          0.5710    -0.9020    -0.4200 cp         1 H90       0.399500
     15 C15          0.7770    -2.2140     0.0550 ca         1 H90      -0.176000
     16 C16          2.0390    -2.7710     0.1220 ca         1 H90      -0.025600
     17 C18          2.2560    -4.1900     0.6390 c          1 H90       0.715600
     18 O19          1.2400    -4.8120     0.9930 o          1 H90      -0.703500
     19 O20          3.4360    -4.5820     0.6510 o          1 H90      -0.703500
     20 C21         -0.7870    -0.3170    -0.4820 cp         1 H90      -0.088500
     21 C22         -0.9480     1.0700    -0.5390 ca         1 H90      -0.104000
     22 C23         -2.2070     1.6350    -0.5980 ca         1 H90      -0.078500
     23 C24         -3.3470     0.8320    -0.5790 ca         1 H90      -0.183600
     24 C25         -3.1920    -0.5520    -0.5330 ca         1 H90      -0.078500
     25 C26         -1.9290    -1.1180    -0.4950 ca         1 H90      -0.104000
     26 C27         -4.6860     1.4690    -0.6860 c          1 H90       0.597300
     27 O27         -4.8220     2.5090    -1.3000 o          1 H90      -0.534100
     28 C28         -5.8540     0.8220    -0.0340 ca         1 H90      -0.162600
     29 C29         -5.7250     0.1170     1.1630 ca         1 H90      -0.065000
     30 C30         -6.8460    -0.4130     1.7850 ca         1 H90      -0.126500
     31 C31         -8.0990    -0.2600     1.2080 ca         1 H90      -0.094000
     32 C32         -8.2340     0.4400     0.0140 ca         1 H90      -0.126500
     33 C33         -7.1200     0.9910    -0.5960 ca         1 H90      -0.065000
     34 H1           6.8330     3.3800     1.6960 h4         1 H90       0.011600
     35 H2           6.5240     2.0200    -0.3410 ha         1 H90       0.131500
     36 H4           2.2930     2.5710     0.1280 ha         1 H90       0.131500
     37 H5           2.7860     3.9120     2.1440 h4         1 H90       0.011600
     38 H7           3.2310     1.6410    -2.0200 h1         1 H90       0.068200
     39 H7A          4.9620     1.3570    -2.1820 h1         1 H90       0.068200
     40 H11          5.1760    -2.8200    -0.1900 h4         1 H90       0.073800
     41 H15         -0.0630    -2.8020     0.3970 ha         1 H90       0.142000
     42 H22         -0.0770     1.7100    -0.5330 ha         1 H90       0.132500
     43 H23         -2.3050     2.7120    -0.6380 ha         1 H90       0.116500
     44 H25         -4.0570    -1.2020    -0.5540 ha         1 H90       0.116500
     45 H26         -1.8470    -2.1960    -0.4930 ha         1 H90       0.132500
     46 H29         -4.7550    -0.0010     1.6280 ha         1 H90       0.127500
     47 H30         -6.7390    -0.9480     2.7200 ha         1 H90       0.113000
     48 H31         -8.9720    -0.6830     1.6880 ha         1 H90       0.108000
     49 H32         -9.2100     0.5590    -0.4370 ha         1 H90       0.113000
     50 H33         -7.2300     1.5420    -1.5210 ha         1 H90       0.127500
@<TRIPOS>BOND
     1     1     2 ar  
     2     1     6 ar  
     3     1    34 1   
     4     2     3 ar  
     5     2    35 1   
     6     3     4 ar  
     7     3     7 1   
     8     4     5 ar  
     9     4    36 1   
    10     5     6 ar  
    11     5    37 1   
    12     7     8 1   
    13     7    38 1   
    14     7    39 1   
    15     8     9 1   
    16     8    12 1   
    17     9    10 ar  
    18     9    13 ar  
    19    10    11 1   
    20    10    16 ar  
    21    11    12 2   
    22    11    40 1   
    23    13    14 ar  
    24    14    15 ar  
    25    14    20 1   
    26    15    16 ar  
    27    15    41 1   
    28    16    17 1   
    29    17    18 1   
    30    17    19 1   
    31    20    21 ar  
    32    20    25 ar  
    33    21    22 ar  
    34    21    42 1   
    35    22    23 ar  
    36    22    43 1   
    37    23    24 ar  
    38    23    26 1   
    39    24    25 ar  
    40    24    44 1   
    41    25    45 1   
    42    26    27 2   
    43    26    28 1   
    44    28    29 ar  
    45    28    33 ar  
    46    29    30 ar  
    47    29    46 1   
    48    30    31 ar  
    49    30    47 1   
    50    31    32 ar  
    51    31    48 1   
    52    32    33 ar  
    53    32    49 1   
    54    33    50 1   
@<TRIPOS>SUBSTRUCTURE
     1 H90         1 TEMP              0 ****  ****    0 ROOT
