@<TRIPOS>MOLECULE
H90
   50    54     1     0     0
SMALL
No Charge or Current Charge


@<TRIPOS>ATOM
      1 C1           4.7970     2.9760     1.8520 ca         1 H90       0.322900
      2 C2           4.9660     2.0180     0.8380 ca         1 H90      -0.138000
      3 C3           4.2700     2.1680    -0.3780 ca         1 H90      -0.069300
      4 C4           3.4330     3.2920    -0.5120 ca         1 H90      -0.138000
      5 C5           3.3220     4.2010     0.5550 ca         1 H90       0.322900
      6 N6           3.9900     4.0550     1.7230 nb         1 H90      -0.674000
      7 C7           4.4160     1.1530    -1.5090 c3         1 H90       0.149900
      8 N8           4.2100    -0.2440    -1.0800 na         1 H90      -0.057100
      9 C9           2.9610    -0.7520    -0.7600 ca         1 H90       0.356500
     10 C10          3.1920    -2.0490    -0.4000 ca         1 H90      -0.217900
     11 C11          4.6180    -2.2560    -0.5310 cc         1 H90       0.416800
     12 N12          5.2570    -1.1530    -0.9490 nd         1 H90      -0.565100
     13 N13          1.7360    -0.1950    -0.7650 nb         1 H90      -0.727000
     14 C14          0.6820    -0.9630    -0.3900 cp         1 H90       0.399500
     15 C15          0.8650    -2.3180     0.0060 ca         1 H90      -0.176000
     16 C16          2.1520    -2.9100     0.0080 ca         1 H90      -0.025600
     17 C18          2.3680    -4.3610     0.4300 c          1 H90       0.715600
     18 O19          1.3910    -5.0260     0.7500 o          1 H90      -0.703500
     19 O20          3.5050    -4.8120     0.4350 o          1 H90      -0.703500
     20 C21         -0.6730    -0.3010    -0.3960 cp         1 H90      -0.088500
     21 C22         -0.8070     1.1100    -0.2890 ca         1 H90      -0.104000
     22 C23         -2.0680     1.7310    -0.2920 ca         1 H90      -0.078500
     23 C24         -3.2460     0.9640    -0.3940 ca         1 H90      -0.183600
     24 C25         -3.1310    -0.4360    -0.5260 ca         1 H90      -0.078500
     25 C26         -1.8700    -1.0550    -0.5230 ca         1 H90      -0.104000
     26 C27         -4.5950     1.6480    -0.4110 c          1 H90       0.597300
     27 O27         -4.7140     2.7720    -0.8870 o          1 H90      -0.534100
     28 C28         -5.7960     0.9310     0.1660 ca         1 H90      -0.162600
     29 C29         -5.6640     0.0420     1.2580 ca         1 H90      -0.065000
     30 C30         -6.7930    -0.6040     1.7900 ca         1 H90      -0.126500
     31 C31         -8.0660    -0.3630     1.2480 ca         1 H90      -0.094000
     32 C32         -8.2100     0.5310     0.1750 ca         1 H90      -0.126500
     33 C33         -7.0830     1.1790    -0.3600 ca         1 H90      -0.065000
     34 H1           5.3260     2.8780     2.8000 h4         1 H90       0.011600
     35 H2           5.6290     1.1740     1.0010 ha         1 H90       0.131500
     36 H4           2.8680     3.4630    -1.4240 ha         1 H90       0.131500
     37 H5           2.6770     5.0760     0.4720 h4         1 H90       0.011600
     38 H7           3.6930     1.3780    -2.3040 h1         1 H90       0.068200
     39 H7A          5.4190     1.2450    -1.9440 h1         1 H90       0.068200
     40 H11          5.2290    -3.1310    -0.3510 h4         1 H90       0.073800
     41 H15          0.0090    -2.9020     0.3270 ha         1 H90       0.142000
     42 H22          0.0780     1.7350    -0.1950 ha         1 H90       0.132500
     43 H23         -2.1260     2.8140    -0.2040 ha         1 H90       0.116500
     44 H25         -4.0200    -1.0530    -0.6480 ha         1 H90       0.116500
     45 H26         -1.8280    -2.1350    -0.6430 ha         1 H90       0.132500
     46 H29         -4.6900    -0.1420     1.7060 ha         1 H90       0.127500
     47 H30         -6.6820    -1.2880     2.6290 ha         1 H90       0.113000
     48 H31         -8.9390    -0.8630     1.6620 ha         1 H90       0.108000
     49 H32         -9.1960     0.7230    -0.2430 ha         1 H90       0.113000
     50 H33         -7.2110     1.8700    -1.1920 ha         1 H90       0.127500
@<TRIPOS>BOND
     1     1     2 ar  
     2     1     6 ar  
     3     1    34 1   
     4     2     3 ar  
     5     2    35 1   
     6     3     4 ar  
     7     3     7 1   
     8     4     5 ar  
     9     4    36 1   
    10     5     6 ar  
    11     5    37 1   
    12     7     8 1   
    13     7    38 1   
    14     7    39 1   
    15     8     9 1   
    16     8    12 1   
    17     9    10 ar  
    18     9    13 ar  
    19    10    11 1   
    20    10    16 ar  
    21    11    12 2   
    22    11    40 1   
    23    13    14 ar  
    24    14    15 ar  
    25    14    20 1   
    26    15    16 ar  
    27    15    41 1   
    28    16    17 1   
    29    17    18 1   
    30    17    19 1   
    31    20    21 ar  
    32    20    25 ar  
    33    21    22 ar  
    34    21    42 1   
    35    22    23 ar  
    36    22    43 1   
    37    23    24 ar  
    38    23    26 1   
    39    24    25 ar  
    40    24    44 1   
    41    25    45 1   
    42    26    27 2   
    43    26    28 1   
    44    28    29 ar  
    45    28    33 ar  
    46    29    30 ar  
    47    29    46 1   
    48    30    31 ar  
    49    30    47 1   
    50    31    32 ar  
    51    31    48 1   
    52    32    33 ar  
    53    32    49 1   
    54    33    50 1   
@<TRIPOS>SUBSTRUCTURE
     1 H90         1 TEMP              0 ****  ****    0 ROOT
