@<TRIPOS>MOLECULE
H91
   62    66     1     0     0
SMALL
No Charge or Current Charge


@<TRIPOS>ATOM
      1 N           -1.5540     5.5030    -0.4800 n3         1 H91      -0.712600
      2 C           -2.8380     5.9820    -1.0380 c3         1 H91       0.148600
      3 O            3.5850     1.7330     2.5020 o          1 H91      -0.566000
      4 C1          -0.9110     6.5230     0.3810 c3         1 H91       0.148600
      5 C10          5.6060    -0.0810     0.1750 c6         1 H91       0.162300
      6 C11          4.5280    -0.9840    -0.3860 ca         1 H91      -0.218300
      7 C12          4.9140    -2.0580    -1.1940 ca         1 H91       0.388900
      8 C13          2.7480    -2.8470    -1.3270 ca         1 H91       0.286000
      9 C14          1.8640    -3.8530    -1.7580 ca         1 H91      -0.088000
     10 C15          0.5220    -3.8650    -1.3550 ca         1 H91      -0.085000
     11 C16          0.0300    -2.8740    -0.4830 cp         1 H91      -0.038000
     12 C17          0.9210    -1.8600    -0.0590 ca         1 H91      -0.075000
     13 C18          2.2650    -1.7900    -0.5010 ca         1 H91      -0.094000
     14 C19          3.1640    -0.7350    -0.1320 ca         1 H91       0.050000
     15 C2          -1.6900     4.1700     0.1660 c3         1 H91       0.167800
     16 C20         -1.3890    -2.8910    -0.0150 cp         1 H91      -0.056000
     17 C21         -2.0480    -4.1050     0.3010 ca         1 H91      -0.052000
     18 C22         -3.3810    -4.1140     0.7490 ca         1 H91       0.049000
     19 C23         -4.0910    -2.9020     0.8900 ca         1 H91       0.167100
     20 C24         -3.4490    -1.6870     0.5750 ca         1 H91       0.049000
     21 C25         -2.1190    -1.6850     0.1260 ca         1 H91      -0.052000
     22 C3          -0.3620     3.4600     0.5830 c6         1 H91      -0.062700
     23 C4          -0.6620     2.0890     1.2520 c6         1 H91      -0.069900
     24 C5           0.6410     1.3730     1.6870 c6         1 H91      -0.092400
     25 C6           1.6040     1.1910     0.4730 c6         1 H91       0.128700
     26 C7           1.9160     2.5540    -0.2000 c6         1 H91      -0.092400
     27 C8           0.6120     3.2780    -0.6190 c6         1 H91      -0.069900
     28 C9           3.8270     0.9390     1.6090 c          1 H91       0.610000
     29 N1           2.8450     0.3910     0.7420 n          1 H91      -0.239400
     30 N2           5.1250     0.5710     1.3840 ns         1 H91      -0.504900
     31 N3           4.0420    -2.9520    -1.6880 nb         1 H91      -0.669000
     32 O1          -5.3910    -2.9050     1.3290 oh         1 H91      -0.505100
     33 Cl          -4.1400    -5.6620     1.1330 cl         1 H91      -0.183500
     34 Cl1         -4.3000    -0.1480     0.7330 cl         1 H91      -0.183500
     35 H2          -3.5730     6.1510    -0.2390 h1         1 H91       0.030533
     36 H3          -2.6980     6.9260    -1.5820 h1         1 H91       0.030533
     37 H4          -3.2550     5.2480    -1.7400 h1         1 H91       0.030533
     38 H5          -1.4850     6.6760     1.3050 h1         1 H91       0.030533
     39 H6           0.1110     6.2290     0.6520 h1         1 H91       0.030533
     40 H7          -0.8450     7.4860    -0.1440 h1         1 H91       0.030533
     41 H8           6.5070    -0.6630     0.4190 h1         1 H91       0.050700
     42 H9           5.8750     0.6870    -0.5640 h1         1 H91       0.050700
     43 H10          5.9620    -2.2190    -1.4460 h4         1 H91       0.020100
     44 H11          2.2330    -4.6460    -2.4020 ha         1 H91       0.135000
     45 H12         -0.1330    -4.6550    -1.7130 ha         1 H91       0.121000
     46 H13          0.5430    -1.1540     0.6620 ha         1 H91       0.129000
     47 H14         -2.3210     4.2610     1.0610 h1         1 H91       0.030200
     48 H15         -2.2140     3.4910    -0.5220 h1         1 H91       0.030200
     49 H16         -1.5150    -5.0490     0.2120 ha         1 H91       0.136000
     50 H17         -1.6520    -0.7390    -0.1300 ha         1 H91       0.136000
     51 H18          0.1210     4.0980     1.3350 hc         1 H91       0.053700
     52 H19         -1.3100     2.2330     2.1280 hc         1 H91       0.045700
     53 H20         -1.2220     1.4510     0.5550 hc         1 H91       0.045700
     54 H21          1.1150     1.9760     2.4710 hc         1 H91       0.057200
     55 H22          0.4020     0.4110     2.1570 hc         1 H91       0.057200
     56 H23          1.0380     0.6540    -0.2990 h1         1 H91       0.056700
     57 H24          2.4860     3.1960     0.4850 hc         1 H91       0.057200
     58 H25          2.5500     2.3960    -1.0830 hc         1 H91       0.057200
     59 H26          0.1140     2.7080    -1.4170 hc         1 H91       0.045700
     60 H27          0.8660     4.2550    -1.0520 hc         1 H91       0.045700
     61 H28          5.8070     0.9610     2.0230 hn         1 H91       0.326500
     62 H29         -5.7040    -1.9740     1.3580 ho         1 H91       0.484000
@<TRIPOS>BOND
     1     1     2 1   
     2     1     4 1   
     3     1    15 1   
     4     2    35 1   
     5     2    36 1   
     6     2    37 1   
     7     3    28 2   
     8     4    38 1   
     9     4    39 1   
    10     4    40 1   
    11     5     6 1   
    12     5    30 1   
    13     5    41 1   
    14     5    42 1   
    15     6     7 ar  
    16     6    14 ar  
    17     7    31 ar  
    18     7    43 1   
    19     8     9 ar  
    20     8    13 ar  
    21     8    31 ar  
    22     9    10 ar  
    23     9    44 1   
    24    10    11 ar  
    25    10    45 1   
    26    11    12 ar  
    27    11    16 1   
    28    12    13 ar  
    29    12    46 1   
    30    13    14 ar  
    31    14    29 1   
    32    15    22 1   
    33    15    47 1   
    34    15    48 1   
    35    16    17 ar  
    36    16    21 ar  
    37    17    18 ar  
    38    17    49 1   
    39    18    19 ar  
    40    18    33 1   
    41    19    20 ar  
    42    19    32 1   
    43    20    21 ar  
    44    20    34 1   
    45    21    50 1   
    46    22    23 1   
    47    22    27 1   
    48    22    51 1   
    49    23    24 1   
    50    23    52 1   
    51    23    53 1   
    52    24    25 1   
    53    24    54 1   
    54    24    55 1   
    55    25    26 1   
    56    25    29 1   
    57    25    56 1   
    58    26    27 1   
    59    26    57 1   
    60    26    58 1   
    61    27    59 1   
    62    27    60 1   
    63    28    29 1   
    64    28    30 1   
    65    30    61 1   
    66    32    62 1   
@<TRIPOS>SUBSTRUCTURE
     1 H91         1 TEMP              0 ****  ****    0 ROOT
