@<TRIPOS>MOLECULE
H91
   62    66     1     0     0
SMALL
bcc


@<TRIPOS>ATOM
      1 N           -1.3290     5.4100    -0.6340 n3         1 H91      -0.712600
      2 C           -2.5170     5.8940    -1.3040 c3         1 H91       0.148600
      3 O            3.3710     1.5120     2.6930 o          1 H91      -0.641500
      4 C1          -0.8640     6.3740     0.3400 c3         1 H91       0.148600
      5 C10          5.4080     0.0880     0.1710 c6         1 H91       0.162300
      6 C11          4.4090    -0.8600    -0.4060 ca         1 H91      -0.283600
      7 C12          4.7500    -1.8590    -1.3300 ca         1 H91       0.454200
      8 C13          2.6180    -2.6350    -1.4310 ca         1 H91       0.416600
      9 C14          1.6990    -3.5830    -1.9400 ca         1 H91      -0.171300
     10 C15          0.4140    -3.6350    -1.4830 ca         1 H91      -0.103000
     11 C16         -0.0270    -2.7550    -0.4670 cp         1 H91      -0.038000
     12 C17          0.8500    -1.8160     0.0220 ca         1 H91      -0.093000
     13 C18          2.1640    -1.6950    -0.4700 ca         1 H91      -0.159300
     14 C19          3.1010    -0.7240    -0.0100 ca         1 H91       0.142600
     15 C2          -1.5700     4.1040    -0.0490 c3         1 H91       0.167800
     16 C20         -1.3950    -2.8450     0.0750 cp         1 H91      -0.056000
     17 C21         -2.0280    -4.0750     0.2400 ca         1 H91      -0.070000
     18 C22         -3.3020    -4.1420     0.7710 ca         1 H91      -0.042600
     19 C23         -3.9990    -2.9990     1.1640 ca         1 H91       0.167100
     20 C24         -3.3520    -1.7760     0.9870 ca         1 H91      -0.042600
     21 C25         -2.0820    -1.6940     0.4500 ca         1 H91      -0.070000
     22 C3          -0.3270     3.4200     0.5110 c6         1 H91      -0.062700
     23 C4          -0.6950     2.0370     1.0470 c6         1 H91      -0.069900
     24 C5           0.5220     1.3120     1.6130 c6         1 H91      -0.092400
     25 C6           1.5740     1.1690     0.5170 c6         1 H91       0.128700
     26 C7           1.9960     2.5450    -0.0020 c6         1 H91      -0.092400
     27 C8           0.7810     3.3030    -0.5320 c6         1 H91      -0.069900
     28 C9           3.6890     0.8150     1.7440 c          1 H91       0.819500
     29 N1           2.7410     0.3210     0.8480 n          1 H91      -0.399000
     30 N2           4.9640     0.4310     1.5050 ns         1 H91      -0.571900
     31 N3           3.8980    -2.6930    -1.8630 nb         1 H91      -0.669000
     32 O1          -5.2220    -3.1360     1.6720 oh         1 H91      -0.466100
     33 CL          -4.0680    -5.6740     0.9790 cl         1 H91      -0.091900
     34 CL1         -4.1830    -0.3280     1.4440 cl         1 H91      -0.091900
     35 H2          -3.3780     6.0170    -0.6280 h1         1 H91       0.030533
     36 H3          -2.3190     6.8620    -1.7660 h1         1 H91       0.030533
     37 H4          -2.8140     5.2020    -2.0940 h1         1 H91       0.030533
     38 H5          -1.5630     6.5090     1.1820 h1         1 H91       0.030533
     39 H6           0.1010     6.0780     0.7540 h1         1 H91       0.030533
     40 H7          -0.7260     7.3440    -0.1380 h1         1 H91       0.030533
     41 H8           6.3890    -0.3800     0.2390 h1         1 H91       0.050700
     42 H9           5.5160     0.9770    -0.4620 h1         1 H91       0.050700
     43 H10          5.7840    -1.9390    -1.6540 h4         1 H91       0.020100
     44 H11          2.0450    -4.2740    -2.6970 ha         1 H91       0.153000
     45 H12         -0.2720    -4.3610    -1.9020 ha         1 H91       0.139000
     46 H13          0.5430    -1.2010     0.8550 ha         1 H91       0.147000
     47 H14         -2.3350     4.1600     0.7480 h1         1 H91       0.030200
     48 H15         -1.9870     3.4610    -0.8320 h1         1 H91       0.030200
     49 H16         -1.5230    -4.9950    -0.0250 ha         1 H91       0.154000
     50 H17         -1.6410    -0.7180     0.2980 ha         1 H91       0.154000
     51 H18          0.0550     4.0000     1.3610 hc         1 H91       0.053700
     52 H19         -1.4670     2.1210     1.8160 hc         1 H91       0.045700
     53 H20         -1.1320     1.4460     0.2310 hc         1 H91       0.045700
     54 H21          0.9250     1.8780     2.4530 hc         1 H91       0.057200
     55 H22          0.2310     0.3380     2.0130 hc         1 H91       0.057200
     56 H23          1.0950     0.6700    -0.3290 h1         1 H91       0.056700
     57 H24          2.4690     3.1250     0.7950 hc         1 H91       0.057200
     58 H25          2.7350     2.4250    -0.7980 hc         1 H91       0.057200
     59 H26          0.3870     2.7810    -1.4130 hc         1 H91       0.045700
     60 H27          1.0880     4.2930    -0.8730 hc         1 H91       0.045700
     61 H28          5.6500     0.8000     2.1450 hn         1 H91       0.326500
     62 H29         -5.6080    -2.2780     1.8940 ho         1 H91       0.445000
@<TRIPOS>BOND
     1     1     2 1   
     2     1     4 1   
     3     1    15 1   
     4     2    35 1   
     5     2    36 1   
     6     2    37 1   
     7     3    28 2   
     8     4    38 1   
     9     4    39 1   
    10     4    40 1   
    11     5     6 1   
    12     5    30 1   
    13     5    41 1   
    14     5    42 1   
    15     6     7 ar  
    16     6    14 ar  
    17     7    31 ar  
    18     7    43 1   
    19     8     9 ar  
    20     8    13 ar  
    21     8    31 ar  
    22     9    10 ar  
    23     9    44 1   
    24    10    11 ar  
    25    10    45 1   
    26    11    12 ar  
    27    11    16 1   
    28    12    13 ar  
    29    12    46 1   
    30    13    14 ar  
    31    14    29 1   
    32    15    22 1   
    33    15    47 1   
    34    15    48 1   
    35    16    17 ar  
    36    16    21 ar  
    37    17    18 ar  
    38    17    49 1   
    39    18    19 ar  
    40    18    33 1   
    41    19    20 ar  
    42    19    32 1   
    43    20    21 ar  
    44    20    34 1   
    45    21    50 1   
    46    22    23 1   
    47    22    27 1   
    48    22    51 1   
    49    23    24 1   
    50    23    52 1   
    51    23    53 1   
    52    24    25 1   
    53    24    54 1   
    54    24    55 1   
    55    25    26 1   
    56    25    29 1   
    57    25    56 1   
    58    26    27 1   
    59    26    57 1   
    60    26    58 1   
    61    27    59 1   
    62    27    60 1   
    63    28    29 1   
    64    28    30 1   
    65    30    61 1   
    66    32    62 1   
@<TRIPOS>SUBSTRUCTURE
     1 H91         1 TEMP              0 ****  ****    0 ROOT
