@<TRIPOS>MOLECULE
H93
   36    38     1     0     0
SMALL
abcg2


@<TRIPOS>ATOM
      1 C01        -11.8290    52.3610     1.1310 c3         1 H93       0.060300
      2 C03        -11.2100    52.2400     3.5070 c          1 H93       0.519500
      3 C05        -10.2460    51.7180     4.4140 cc         1 H93       0.084500
      4 C06         -9.2320    50.9160     3.9360 cd         1 H93       0.158400
      5 C08         -9.9060    51.0250     1.8220 cc         1 H93       0.732800
      6 C11         -9.0950    51.1990     6.1020 cd         1 H93       0.408400
      7 C13         -7.3080    49.7650     5.1130 c5         1 H93       0.286300
      8 C14         -7.4580    48.3440     4.5560 c5         1 H93       0.085300
      9 C15         -6.0020    48.0080     4.2500 c5         1 H93       0.148300
     10 C16         -5.4790    49.3480     3.7430 c5         1 H93       0.167300
     11 C18         -5.5640    49.4680     2.2350 c3         1 H93       0.151600
     12 N02        -10.9470    51.8490     2.1730 n          1 H93      -0.358300
     13 N07         -9.0300    50.5390     2.6700 nd         1 H93      -0.716100
     14 N10         -8.4940    50.5780     5.0330 na         1 H93      -0.191500
     15 N12        -10.1460    51.8810     5.7730 nc         1 H93      -0.590000
     16 O04        -12.1650    52.9460     3.7810 o          1 H93      -0.513000
     17 O17         -6.2710    50.3550     4.3830 os         1 H93      -0.420000
     18 O19         -5.0960    50.7400     1.8610 oh         1 H93      -0.697000
     19 O20         -5.2950    47.6690     5.4170 oh         1 H93      -0.710000
     20 O21         -8.0090    47.4370     5.4620 oh         1 H93      -0.714000
     21 H1         -12.5250    53.0600     1.5780 h1         1 H93       0.057367
     22 H2         -11.2540    52.8840     0.3690 h1         1 H93       0.057367
     23 H3         -12.4010    51.5560     0.6700 h1         1 H93       0.057367
     24 H4          -8.6960    51.0940     7.1000 h5         1 H93       0.062100
     25 H5          -7.0620    49.7080     6.1810 h2         1 H93       0.084700
     26 H6          -8.0220    48.3740     3.6160 h1         1 H93       0.074700
     27 H7          -5.9180    47.2230     3.4870 h1         1 H93       0.057700
     28 H8          -4.4360    49.4830     4.0490 h1         1 H93       0.099700
     29 H9          -6.5970    49.3030     1.9040 h1         1 H93       0.024700
     30 H10         -4.9520    48.6640     1.8050 h1         1 H93       0.024700
     31 H11         -9.0570    50.0330     0.3040 hn         1 H93       0.496000
     32 H12        -10.5060    50.8080    -0.1410 hn         1 H93       0.496000
     33 H13         -5.2090    50.8340     0.9110 ho         1 H93       0.502000
     34 H14         -5.7230    46.9060     5.8200 ho         1 H93       0.527000
     35 H15         -8.9660    47.5360     5.4670 ho         1 H93       0.525000
     36 N09         -9.7520    50.7300     0.5190 nv         1 H93      -1.040200
@<TRIPOS>BOND
     1     1    12 1   
     2     1    21 1   
     3     1    22 1   
     4     1    23 1   
     5     2     3 1   
     6     2    12 1   
     7     2    16 2   
     8     3     4 2   
     9     3    15 1   
    10     4    13 1   
    11     4    14 1   
    12     5    12 1   
    13     5    13 2   
    14     5    36 1   
    15     6    14 1   
    16     6    15 2   
    17     6    24 1   
    18     7     8 1   
    19     7    14 1   
    20     7    17 1   
    21     7    25 1   
    22     8     9 1   
    23     8    20 1   
    24     8    26 1   
    25     9    10 1   
    26     9    19 1   
    27     9    27 1   
    28    10    11 1   
    29    10    17 1   
    30    10    28 1   
    31    11    18 1   
    32    11    29 1   
    33    11    30 1   
    34    18    33 1   
    35    19    34 1   
    36    20    35 1   
    37    31    36 1   
    38    32    36 1   
@<TRIPOS>SUBSTRUCTURE
     1 H93         1 TEMP              0 ****  ****    0 ROOT
