@<TRIPOS>MOLECULE
H93
   36    38     1     0     0
SMALL
No Charge or Current Charge


@<TRIPOS>ATOM
      1 C01        -11.9570    52.4210     1.0870 c3         1 H93       0.060300
      2 C03        -11.1740    52.3530     3.4480 c          1 H93       0.519500
      3 C05        -10.1720    51.7830     4.3750 cc         1 H93       0.084500
      4 C06         -9.2300    50.8960     3.9430 cd         1 H93       0.158400
      5 C08        -10.0390    50.9720     1.8340 cc         1 H93       0.732800
      6 C11         -8.9880    51.2910     6.1040 cd         1 H93       0.408400
      7 C13         -7.3040    49.6700     5.1210 c5         1 H93       0.286300
      8 C14         -7.3940    48.2780     4.4030 c5         1 H93       0.085300
      9 C15         -5.8810    47.9580     4.2640 c5         1 H93       0.148300
     10 C16         -5.3330    49.3620     3.8400 c5         1 H93       0.167300
     11 C18         -5.4600    49.6480     2.3130 c3         1 H93       0.151600
     12 N02        -11.0310    51.8930     2.1310 n          1 H93      -0.358300
     13 N07         -9.1410    50.4440     2.6340 nd         1 H93      -0.716100
     14 N10         -8.4610    50.5650     5.0410 na         1 H93      -0.191500
     15 N12        -10.0270    52.0310     5.7210 nc         1 H93      -0.590000
     16 O04        -12.0460    53.1480     3.7870 o          1 H93      -0.513000
     17 O17         -6.1280    50.3260     4.5880 os         1 H93      -0.420000
     18 O19         -4.7310    50.8310     1.9380 oh         1 H93      -0.697000
     19 O20         -5.3630    47.4930     5.5190 oh         1 H93      -0.710000
     20 O21         -8.0740    47.2610     5.1710 oh         1 H93      -0.714000
     21 H1         -12.4210    53.3640     1.4020 h1         1 H93       0.057367
     22 H2         -11.4090    52.6210     0.1570 h1         1 H93       0.057367
     23 H3         -12.7490    51.6870     0.8910 h1         1 H93       0.057367
     24 H4          -8.5720    51.2310     7.1040 h5         1 H93       0.062100
     25 H5          -7.1400    49.4960     6.1920 h2         1 H93       0.084700
     26 H6          -7.8440    48.3720     3.4060 h1         1 H93       0.074700
     27 H7          -5.7050    47.2060     3.4810 h1         1 H93       0.057700
     28 H8          -4.2760    49.4650     4.1210 h1         1 H93       0.099700
     29 H9          -6.5200    49.7500     2.0480 h1         1 H93       0.024700
     30 H10         -5.0660    48.7820     1.7640 h1         1 H93       0.024700
     31 H11         -9.3470    49.6760     0.5520 hn         1 H93       0.496000
     32 H12        -10.8110    50.4210     0.0820 hn         1 H93       0.496000
     33 H13         -4.9360    51.0080     0.9900 ho         1 H93       0.502000
     34 H14         -6.1340    47.0180     5.9200 ho         1 H93       0.527000
     35 H15         -9.0450    47.3770     5.0240 ho         1 H93       0.525000
     36 N09         -9.9480    50.4870     0.6040 nv         1 H93      -1.040200
@<TRIPOS>BOND
     1     1    12 1   
     2     1    21 1   
     3     1    22 1   
     4     1    23 1   
     5     2     3 1   
     6     2    12 1   
     7     2    16 2   
     8     3     4 2   
     9     3    15 1   
    10     4    13 1   
    11     4    14 1   
    12     5    12 1   
    13     5    13 2   
    14     5    36 1   
    15     6    14 1   
    16     6    15 2   
    17     6    24 1   
    18     7     8 1   
    19     7    14 1   
    20     7    17 1   
    21     7    25 1   
    22     8     9 1   
    23     8    20 1   
    24     8    26 1   
    25     9    10 1   
    26     9    19 1   
    27     9    27 1   
    28    10    11 1   
    29    10    17 1   
    30    10    28 1   
    31    11    18 1   
    32    11    29 1   
    33    11    30 1   
    34    18    33 1   
    35    19    34 1   
    36    20    35 1   
    37    31    36 1   
    38    32    36 1   
@<TRIPOS>SUBSTRUCTURE
     1 H93         1 TEMP              0 ****  ****    0 ROOT
