@<TRIPOS>MOLECULE
H94
   49    52     1     0     0
SMALL
No Charge or Current Charge


@<TRIPOS>ATOM
      1 C10         88.0460    -3.5350   111.9310 cc         1 H94      -0.054300
      2 C11         89.3210    -3.9430   111.6140 cd         1 H94      -0.303300
      3 C12         87.5230    -2.1570   112.2920 c6         1 H94      -0.012400
      4 C13         86.8480    -2.1730   113.6860 c6         1 H94      -0.096900
      5 C14         86.2690    -0.7840   114.0470 c6         1 H94       0.223300
      6 C16         85.9260    -0.2810   111.6170 c6         1 H94       0.223300
      7 C17         86.5040    -1.6650   111.2360 c6         1 H94      -0.096900
      8 C18         84.2610     0.5470   113.3070 ca         1 H94       0.657900
      9 C19         84.2410     1.3570   114.4580 ca         1 H94      -0.206000
     10 C20         83.1270     2.1840   114.7280 ca         1 H94      -0.065300
     11 C21         82.0670     2.1390   113.7860 ca         1 H94      -0.108000
     12 C22         82.1810     1.3000   112.6650 ca         1 H94       0.439900
     13 C24         80.8710     2.9190   113.9210 cg         1 H94       0.325000
     14 C31         91.2490    -2.9510   112.9670 c3         1 H94       0.255000
     15 F32         91.5020    -4.1250   113.5930 f          1 H94      -0.109333
     16 F33         90.4270    -2.2440   113.7790 f          1 H94      -0.109333
     17 C2          90.6250    -3.1710   111.5270 c6         1 H94       0.245300
     18 O1          90.3840    -1.9140   110.8940 oh         1 H94      -0.634000
     19 C7          89.2610    -5.3340   111.4460 cd         1 H94       0.421900
     20 N6          90.3830    -6.0370   111.1600 ns         1 H94      -0.471400
     21 C4          91.5800    -5.4780   110.8110 c          1 H94       0.581000
     22 O5          92.5800    -6.1640   110.6830 o          1 H94      -0.522000
     23 C3          91.6010    -3.9600   110.6100 c6         1 H94      -0.160400
     24 N9          87.3110    -4.7250   111.9100 na         1 H94      -0.007200
     25 N8          88.0710    -5.8510   111.6210 nc         1 H94      -0.536800
     26 N15         85.3340    -0.3040   112.9890 nh         1 H94      -0.784300
     27 N23         83.2540     0.5160   112.4230 nb         1 H94      -0.753000
     28 N25         79.8940     3.5500   114.0210 n1         1 H94      -0.428000
     29 C26         83.0850     3.0820   115.9810 c3         1 H94       0.343300
     30 F27         84.1960     2.9710   116.7460 f          1 H94      -0.103000
     31 F28         82.9720     4.3900   115.6570 f          1 H94      -0.103000
     32 F29         82.0380     2.7770   116.7820 f          1 H94      -0.103000
     33 H1          88.3450    -1.4310   112.3370 hc         1 H94       0.066700
     34 H2          86.0370    -2.9130   113.7100 hc         1 H94       0.062450
     35 H3          87.5730    -2.4790   114.4530 hc         1 H94       0.062450
     36 H4          87.0940    -0.0680   114.1800 h1         1 H94       0.068450
     37 H5          85.7510    -0.8740   115.0130 h1         1 H94       0.068450
     38 H6          86.7280     0.4710   111.5680 h1         1 H94       0.068450
     39 H7          85.1810    -0.0010   110.8580 h1         1 H94       0.068450
     40 H8          85.6790    -2.3830   111.1410 hc         1 H94       0.062450
     41 H9          86.9810    -1.6040   110.2490 hc         1 H94       0.062450
     42 H10         85.0940     1.3500   115.1260 ha         1 H94       0.142000
     43 H11         81.3810     1.2490   111.9270 h4         1 H94       0.036100
     44 H12         89.5690    -2.0410   110.3660 ho         1 H94       0.457000
     45 H13         90.3570    -7.0450   111.1910 hn         1 H94       0.349500
     46 H14         92.6320    -3.5850   110.6290 hc         1 H94       0.102700
     47 H15         91.2350    -3.8280   109.5840 hc         1 H94       0.102700
     48 H16         86.3140    -4.8030   112.1030 hn         1 H94       0.383000
     49 F34         92.4220    -2.2740   112.9130 f          1 H94      -0.109333
@<TRIPOS>BOND
     1     1     2 2   
     2     1     3 1   
     3     1    24 1   
     4     2    17 1   
     5     2    19 1   
     6     3     4 1   
     7     3     7 1   
     8     3    33 1   
     9     4     5 1   
    10     4    34 1   
    11     4    35 1   
    12     5    26 1   
    13     5    36 1   
    14     5    37 1   
    15     6     7 1   
    16     6    26 1   
    17     6    38 1   
    18     6    39 1   
    19     7    40 1   
    20     7    41 1   
    21     8     9 ar  
    22     8    26 1   
    23     8    27 ar  
    24     9    10 ar  
    25     9    42 1   
    26    10    11 ar  
    27    10    29 1   
    28    11    12 ar  
    29    11    13 1   
    30    12    27 ar  
    31    12    43 1   
    32    13    28 3   
    33    14    15 1   
    34    14    16 1   
    35    14    17 1   
    36    14    49 1   
    37    17    18 1   
    38    17    23 1   
    39    18    44 1   
    40    19    20 1   
    41    19    25 2   
    42    20    21 1   
    43    20    45 1   
    44    21    22 2   
    45    21    23 1   
    46    23    46 1   
    47    23    47 1   
    48    24    25 1   
    49    24    48 1   
    50    29    30 1   
    51    29    31 1   
    52    29    32 1   
@<TRIPOS>SUBSTRUCTURE
     1 H94         1 TEMP              0 ****  ****    0 ROOT
