@<TRIPOS>MOLECULE
H94
   49    52     1     0     0
SMALL
abcg2


@<TRIPOS>ATOM
      1 C10         88.0850    -3.2630   112.3800 cc         1 H94      -0.054300
      2 C11         89.1940    -3.8760   111.8110 cd         1 H94      -0.303300
      3 C12         87.7300    -1.8200   112.5530 c6         1 H94      -0.012400
      4 C13         87.1540    -1.4970   113.9390 c6         1 H94      -0.096900
      5 C14         86.8260    -0.0080   114.0450 c6         1 H94       0.223300
      6 C16         86.4360     0.1420   111.6430 c6         1 H94       0.223300
      7 C17         86.7640    -1.3360   111.4570 c6         1 H94      -0.096900
      8 C18         84.6570     0.8600   113.1860 ca         1 H94       0.657900
      9 C19         84.1430     1.1300   114.4900 ca         1 H94      -0.206000
     10 C20         82.8780     1.6290   114.6220 ca         1 H94      -0.065300
     11 C21         82.0860     1.8670   113.4760 ca         1 H94      -0.108000
     12 C22         82.6710     1.5670   112.2420 ca         1 H94       0.439900
     13 C24         80.7690     2.3830   113.5190 cg         1 H94       0.325000
     14 C31         91.4920    -3.0730   112.3620 c3         1 H94       0.255000
     15 F32         91.7570    -4.1690   113.1030 f          1 H94      -0.109333
     16 F33         91.0190    -2.1270   113.2000 f          1 H94      -0.109333
     17 C2          90.4840    -3.3840   111.2300 c6         1 H94       0.245300
     18 O1          90.3750    -2.2260   110.4170 oh         1 H94      -0.634000
     19 C7          88.9220    -5.2550   111.9040 cd         1 H94       0.421900
     20 N6          89.8030    -6.2340   111.4730 ns         1 H94      -0.471400
     21 C4          90.9220    -5.9270   110.7620 c          1 H94       0.581000
     22 O5          91.7380    -6.7770   110.4330 o          1 H94      -0.522000
     23 C3          91.0590    -4.4800   110.3140 c6         1 H94      -0.160400
     24 N9          87.2640    -4.2710   112.7470 na         1 H94      -0.007200
     25 N8          87.7540    -5.5100   112.4670 nc         1 H94      -0.536800
     26 N15         85.9040     0.3900   112.9840 nh         1 H94      -0.784300
     27 N23         83.8910     1.0880   112.0950 nb         1 H94      -0.753000
     28 N25         79.6930     2.8030   113.5280 n1         1 H94      -0.428000
     29 C26         82.3280     1.9330   115.9940 c3         1 H94       0.343300
     30 F27         83.2080     1.6840   116.9760 f          1 H94      -0.103000
     31 F28         81.9710     3.2320   116.1040 f          1 H94      -0.103000
     32 F29         81.2240     1.2000   116.2570 f          1 H94      -0.103000
     33 H1          88.6540    -1.2440   112.4600 hc         1 H94       0.066700
     34 H2          86.2400    -2.0700   114.1180 hc         1 H94       0.062450
     35 H3          87.8720    -1.7620   114.7170 hc         1 H94       0.062450
     36 H4          87.7410     0.5820   113.9330 h1         1 H94       0.068450
     37 H5          86.4140     0.2130   115.0220 h1         1 H94       0.068450
     38 H6          87.3460     0.7400   111.5330 h1         1 H94       0.068450
     39 H7          85.7130     0.4760   110.9090 h1         1 H94       0.068450
     40 H8          85.8430    -1.9230   111.4960 hc         1 H94       0.062450
     41 H9          87.2120    -1.4820   110.4720 hc         1 H94       0.062450
     42 H10         84.7350     0.9590   115.3720 ha         1 H94       0.142000
     43 H11         82.1010     1.7310   111.3340 h4         1 H94       0.036100
     44 H12         89.9620    -1.5050   110.9100 ho         1 H94       0.457000
     45 H13         89.6460    -7.2010   111.7270 hn         1 H94       0.349500
     46 H14         92.1060    -4.2930   110.0880 hc         1 H94       0.102700
     47 H15         90.5010    -4.4030   109.3760 hc         1 H94       0.102700
     48 H16         86.3520    -4.1930   113.1680 hn         1 H94       0.383000
     49 F34         92.6670    -2.6230   111.8860 f          1 H94      -0.109333
@<TRIPOS>BOND
     1     1     2 2   
     2     1     3 1   
     3     1    24 1   
     4     2    17 1   
     5     2    19 1   
     6     3     4 1   
     7     3     7 1   
     8     3    33 1   
     9     4     5 1   
    10     4    34 1   
    11     4    35 1   
    12     5    26 1   
    13     5    36 1   
    14     5    37 1   
    15     6     7 1   
    16     6    26 1   
    17     6    38 1   
    18     6    39 1   
    19     7    40 1   
    20     7    41 1   
    21     8     9 ar  
    22     8    26 1   
    23     8    27 ar  
    24     9    10 ar  
    25     9    42 1   
    26    10    11 ar  
    27    10    29 1   
    28    11    12 ar  
    29    11    13 1   
    30    12    27 ar  
    31    12    43 1   
    32    13    28 3   
    33    14    15 1   
    34    14    16 1   
    35    14    17 1   
    36    14    49 1   
    37    17    18 1   
    38    17    23 1   
    39    18    44 1   
    40    19    20 1   
    41    19    25 2   
    42    20    21 1   
    43    20    45 1   
    44    21    22 2   
    45    21    23 1   
    46    23    46 1   
    47    23    47 1   
    48    24    25 1   
    49    24    48 1   
    50    29    30 1   
    51    29    31 1   
    52    29    32 1   
@<TRIPOS>SUBSTRUCTURE
     1 H94         1 TEMP              0 ****  ****    0 ROOT
