@<TRIPOS>MOLECULE
H95
   22    21     1     0     0
SMALL
abcg2


@<TRIPOS>ATOM
      1 C01          3.0450    -1.0130     0.0920 c3         1 H95      -0.128100
      2 C02          1.9470    -0.0370    -0.3060 c3         1 H95       0.170300
      3 C03          0.5920    -0.4680     0.2360 c3         1 H95      -0.066400
      4 C04         -0.5610     0.4240    -0.2100 c3         1 H95      -0.066400
      5 C05         -1.9150    -0.0100     0.3290 c3         1 H95       0.170300
      6 C06         -3.0130     0.9710    -0.0590 c3         1 H95      -0.128100
      7 O07         -2.1870    -1.3090    -0.1670 oh         1 H95      -0.665000
      8 O08          2.2170     1.2660     0.1810 oh         1 H95      -0.665000
      9 H012         4.0130    -0.7040    -0.3060 hc         1 H95       0.040033
     10 H011         3.1320    -1.0840     1.1780 hc         1 H95       0.040033
     11 H013         2.8360    -2.0110    -0.2960 hc         1 H95       0.040033
     12 H021         1.8830    -0.0230    -1.4040 h1         1 H95       0.026200
     13 H032         0.4150    -1.4950    -0.0920 hc         1 H95       0.051700
     14 H031         0.6380    -0.4970     1.3310 hc         1 H95       0.051700
     15 H042        -0.3850     1.4500     0.1190 hc         1 H95       0.051700
     16 H041        -0.6060     0.4550    -1.3050 hc         1 H95       0.051700
     17 H051        -1.8510    -0.0340     1.4280 h1         1 H95       0.026200
     18 H063        -3.9810     0.6580     0.3380 hc         1 H95       0.040033
     19 H062        -2.8030     1.9650     0.3380 hc         1 H95       0.040033
     20 H061        -3.1020     1.0520    -1.1440 hc         1 H95       0.040033
     21 H071        -3.0070    -1.6170     0.2300 ho         1 H95       0.438000
     22 H081         3.0430     1.5670    -0.2100 ho         1 H95       0.438000
@<TRIPOS>BOND
     1     1     2 1   
     2     1     9 1   
     3     1    10 1   
     4     1    11 1   
     5     2     3 1   
     6     2     8 1   
     7     2    12 1   
     8     3     4 1   
     9     3    13 1   
    10     3    14 1   
    11     4     5 1   
    12     4    15 1   
    13     4    16 1   
    14     5     6 1   
    15     5     7 1   
    16     5    17 1   
    17     6    18 1   
    18     6    19 1   
    19     6    20 1   
    20     7    21 1   
    21     8    22 1   
@<TRIPOS>SUBSTRUCTURE
     1 H95         1 TEMP              0 ****  ****    0 ROOT
