@<TRIPOS>MOLECULE
H95
   22    21     1     0     0
SMALL
No Charge or Current Charge


@<TRIPOS>ATOM
      1 C01          3.1090    -1.0090     0.0830 c3         1 H95      -0.128100
      2 C02          1.9850    -0.0290    -0.3030 c3         1 H95       0.170300
      3 C03          0.6060    -0.4680     0.2480 c3         1 H95      -0.066400
      4 C04         -0.5740     0.4230    -0.2200 c3         1 H95      -0.066400
      5 C05         -1.9530    -0.0160     0.3300 c3         1 H95       0.170300
      6 C06         -3.0780     0.9640    -0.0560 c3         1 H95      -0.128100
      7 O07         -2.2880    -1.3120    -0.1760 oh         1 H95      -0.665000
      8 O08          2.3200     1.2670     0.2030 oh         1 H95      -0.665000
      9 H012         4.0700    -0.6850    -0.3360 hc         1 H95       0.040033
     10 H011         3.2130    -1.0780     1.1730 hc         1 H95       0.040033
     11 H013         2.8940    -2.0120    -0.3050 hc         1 H95       0.040033
     12 H021         1.9240     0.0040    -1.3990 h1         1 H95       0.026200
     13 H032         0.4190    -1.5010    -0.0710 hc         1 H95       0.051700
     14 H031         0.6390    -0.4790     1.3440 hc         1 H95       0.051700
     15 H042        -0.3870     1.4560     0.0990 hc         1 H95       0.051700
     16 H041        -0.6080     0.4340    -1.3170 hc         1 H95       0.051700
     17 H051        -1.8920    -0.0490     1.4260 h1         1 H95       0.026200
     18 H063        -4.0380     0.6400     0.3630 hc         1 H95       0.040033
     19 H062        -2.8620     1.9670     0.3320 hc         1 H95       0.040033
     20 H061        -3.1810     1.0330    -1.1460 hc         1 H95       0.040033
     21 H071        -3.1480    -1.5620     0.2270 ho         1 H95       0.438000
     22 H081         3.1800     1.5170    -0.2000 ho         1 H95       0.438000
@<TRIPOS>BOND
     1     1     2 1   
     2     1     9 1   
     3     1    10 1   
     4     1    11 1   
     5     2     3 1   
     6     2     8 1   
     7     2    12 1   
     8     3     4 1   
     9     3    13 1   
    10     3    14 1   
    11     4     5 1   
    12     4    15 1   
    13     4    16 1   
    14     5     6 1   
    15     5     7 1   
    16     5    17 1   
    17     6    18 1   
    18     6    19 1   
    19     6    20 1   
    20     7    21 1   
    21     8    22 1   
@<TRIPOS>SUBSTRUCTURE
     1 H95         1 TEMP              0 ****  ****    0 ROOT
