@<TRIPOS>MOLECULE
H96
   51    54     1     0     0
SMALL
No Charge or Current Charge


@<TRIPOS>ATOM
      1 C13         82.3360   144.5830    17.2890 ca         1 H96       0.247000
      2 C15         81.3670   146.0000    19.0340 ca         1 H96      -0.122000
      3 C17         79.3100   144.0270    21.4340 c3         1 H96       0.144900
      4 C20         79.2430   141.0100    17.4990 c3         1 H96       0.073600
      5 C21         78.8480   140.8710    16.0020 c5         1 H96      -0.089700
      6 C22         79.3540   141.9870    15.0300 c5         1 H96       0.140800
      7 C24         79.2500   139.9930    13.8200 c5         1 H96       0.139800
      8 C26         84.8100   144.4170    13.8200 c3         1 H96       0.213900
      9 C01         84.7330   139.3340    12.5870 c3         1 H96       0.149900
     10 C04         82.9530   140.8600    15.4780 ca         1 H96      -0.166000
     11 C05         83.7570   140.7760    14.3370 ca         1 H96       0.153100
     12 C06         84.3440   141.9420    13.8170 ca         1 H96      -0.155000
     13 C07         84.1300   143.1900    14.4360 ca         1 H96      -0.019300
     14 C08         82.7150   142.1010    16.1130 ca         1 H96       0.005000
     15 C09         83.3120   143.2860    15.5950 ca         1 H96       0.257000
     16 C11         80.9190   143.6140    19.0400 ca         1 H96      -0.226000
     17 C12         81.7010   143.4530    17.8690 ca         1 H96       0.002000
     18 C14         82.1550   145.8450    17.8830 ca         1 H96      -0.052000
     19 C16         80.7500   144.8880    19.6200 ca         1 H96       0.159100
     20 C18         81.8790   142.1860    17.2580 ca         1 H96      -0.093000
     21 C25         79.2850   139.5520    15.2970 c5         1 H96      -0.115400
     22 N10         83.1090   144.4880    16.1870 nb         1 H96      -0.626000
     23 N23         79.9730   141.2760    13.8840 n7         1 H96      -0.832400
     24 O02         79.9940   145.0960    20.7560 os         1 H96      -0.335100
     25 O03         83.9360   139.5320    13.7690 os         1 H96      -0.341100
     26 O27         84.2080   144.7560    12.5620 oh         1 H96      -0.646000
     27 S19         81.0390   140.7220    17.8910 ss         1 H96      -0.226000
     28 H1          81.2400   146.9840    19.4770 ha         1 H96       0.133000
     29 H2          78.7680   144.4160    22.3060 h1         1 H96       0.044367
     30 H3          78.5810   143.5470    20.7680 h1         1 H96       0.044367
     31 H4          80.0210   143.2690    21.7860 h1         1 H96       0.044367
     32 H5          78.9490   142.0040    17.8580 h1         1 H96       0.069700
     33 H6          78.6660   140.2710    18.0700 h1         1 H96       0.069700
     34 H7          77.7520   140.9140    16.0040 hc         1 H96       0.052700
     35 H8          80.0620   142.6820    15.4990 h1         1 H96       0.053700
     36 H9          78.5030   142.5910    14.6850 h1         1 H96       0.053700
     37 H10         78.2190   140.1340    13.4640 h1         1 H96       0.052200
     38 H11         79.7480   139.2710    13.1570 h1         1 H96       0.052200
     39 H12         85.8730   144.1830    13.6720 h1         1 H96       0.030700
     40 H13         84.7730   145.2770    14.5000 h1         1 H96       0.030700
     41 H14         84.7380   138.2730    12.3060 h1         1 H96       0.043367
     42 H15         84.3280   139.9070    11.7430 h1         1 H96       0.043367
     43 H16         85.7710   139.6450    12.7590 h1         1 H96       0.043367
     44 H17         82.5300   139.9380    15.8590 ha         1 H96       0.147000
     45 H18         84.9720   141.9020    12.9320 ha         1 H96       0.122000
     46 H19         80.4550   142.7530    19.5050 ha         1 H96       0.135000
     47 H20         82.6340   146.7150    17.4420 ha         1 H96       0.134000
     48 H21         78.6030   138.7200    15.5010 hc         1 H96       0.054700
     49 H22         80.2900   139.2260    15.5850 hc         1 H96       0.054700
     50 H23         80.9450   141.0650    14.1410 hn         1 H96       0.407000
     51 H25         84.6780   145.5530    12.2300 ho         1 H96       0.443000
@<TRIPOS>BOND
     1     1    17 ar  
     2     1    18 ar  
     3     1    22 ar  
     4     2    18 ar  
     5     2    19 ar  
     6     2    28 1   
     7     3    24 1   
     8     3    29 1   
     9     3    30 1   
    10     3    31 1   
    11     4     5 1   
    12     4    27 1   
    13     4    32 1   
    14     4    33 1   
    15     5     6 1   
    16     5    21 1   
    17     5    34 1   
    18     6    23 1   
    19     6    35 1   
    20     6    36 1   
    21     7    21 1   
    22     7    23 1   
    23     7    37 1   
    24     7    38 1   
    25     8    13 1   
    26     8    26 1   
    27     8    39 1   
    28     8    40 1   
    29     9    25 1   
    30     9    41 1   
    31     9    42 1   
    32     9    43 1   
    33    10    11 ar  
    34    10    14 ar  
    35    10    44 1   
    36    11    12 ar  
    37    11    25 1   
    38    12    13 ar  
    39    12    45 1   
    40    13    15 ar  
    41    14    15 ar  
    42    14    20 ar  
    43    15    22 ar  
    44    16    17 ar  
    45    16    19 ar  
    46    16    46 1   
    47    17    20 ar  
    48    18    47 1   
    49    19    24 1   
    50    20    27 1   
    51    21    48 1   
    52    21    49 1   
    53    23    50 1   
    54    26    51 1   
@<TRIPOS>SUBSTRUCTURE
     1 H96         1 TEMP              0 ****  ****    0 ROOT
