@<TRIPOS>MOLECULE
H96
   51    54     1     0     0
SMALL
bcc


@<TRIPOS>ATOM
      1 C13         82.4920   144.5990    17.3200 ca         1 H96       0.377600
      2 C15         81.5780   146.0170    19.0570 ca         1 H96      -0.140000
      3 C17         79.3540   144.1430    21.2470 c3         1 H96       0.121700
      4 C20         79.2180   141.2500    17.2950 c3         1 H96       0.025700
      5 C21         78.7310   140.7970    15.9270 c5         1 H96      -0.089700
      6 C22         79.3730   141.5110    14.7080 c5         1 H96       0.140800
      7 C24         78.9380   139.3020    14.0890 c5         1 H96       0.139800
      8 C26         85.0470   144.5150    14.0730 c3         1 H96       0.190700
      9 C01         84.7250   139.6720    12.4620 c3         1 H96       0.126700
     10 C04         82.9000   140.9800    15.3010 ca         1 H96      -0.184000
     11 C05         83.7450   140.9450    14.2250 ca         1 H96       0.153100
     12 C06         84.4600   142.1130    13.8420 ca         1 H96      -0.173000
     13 C07         84.3160   143.2840    14.5240 ca         1 H96      -0.084600
     14 C08         82.7180   142.1720    16.0410 ca         1 H96      -0.060300
     15 C09         83.4280   143.3500    15.6440 ca         1 H96       0.387600
     16 C11         80.9300   143.6790    18.9810 ca         1 H96      -0.244000
     17 C12         81.7390   143.4920    17.8260 ca         1 H96      -0.063300
     18 C14         82.3750   145.8620    17.9740 ca         1 H96      -0.135300
     19 C16         80.8460   144.9060    19.5770 ca         1 H96       0.159100
     20 C18         81.8500   142.2740    17.1440 ca         1 H96       0.033900
     21 C25         78.9010   139.3090    15.6160 c5         1 H96      -0.115400
     22 N10         83.3000   144.5120    16.2740 nb         1 H96      -0.626000
     23 N23         79.6990   140.4890    13.7110 n7         1 H96      -0.777200
     24 O02         80.1110   145.1850    20.6620 os         1 H96      -0.311900
     25 O03         83.8480   139.7780    13.5680 os         1 H96      -0.317900
     26 O27         84.1380   145.3440    13.3800 oh         1 H96      -0.583800
     27 S19         80.9590   140.8470    17.7020 ss         1 H96      -0.305000
     28 H1          81.4910   146.9770    19.5500 ha         1 H96       0.151000
     29 H2          78.8290   144.5780    22.0920 h1         1 H96       0.044367
     30 H3          78.6220   143.7320    20.5460 h1         1 H96       0.044367
     31 H4          79.9920   143.3300    21.6050 h1         1 H96       0.044367
     32 H5          79.0750   142.3230    17.4260 h1         1 H96       0.069700
     33 H6          78.6390   140.7560    18.0770 h1         1 H96       0.069700
     34 H7          77.6590   141.0210    15.9250 hc         1 H96       0.052700
     35 H8          80.2700   142.0680    14.9730 h1         1 H96       0.053700
     36 H9          78.6660   142.2350    14.2940 h1         1 H96       0.053700
     37 H10         77.9210   139.3750    13.6890 h1         1 H96       0.052200
     38 H11         79.3910   138.4050    13.6660 h1         1 H96       0.052200
     39 H12         85.8830   144.2130    13.4300 h1         1 H96       0.030700
     40 H13         85.4750   145.0240    14.9420 h1         1 H96       0.030700
     41 H14         84.6440   138.6480    12.1060 h1         1 H96       0.043367
     42 H15         84.4460   140.3470    11.6490 h1         1 H96       0.043367
     43 H16         85.7640   139.8630    12.7420 h1         1 H96       0.043367
     44 H17         82.3670   140.0850    15.5920 ha         1 H96       0.165000
     45 H18         85.1310   142.0880    12.9920 ha         1 H96       0.140000
     46 H19         80.4050   142.8230    19.3810 ha         1 H96       0.153000
     47 H20         82.9440   146.6930    17.5790 ha         1 H96       0.152000
     48 H21         78.1020   138.6980    16.0380 hc         1 H96       0.054700
     49 H22         79.8520   138.9370    16.0070 hc         1 H96       0.054700
     50 H23         80.6840   140.2680    13.7890 hn         1 H96       0.351800
     51 H25         84.5380   146.2150    13.2950 ho         1 H96       0.404000
@<TRIPOS>BOND
     1     1    17 ar  
     2     1    18 ar  
     3     1    22 ar  
     4     2    18 ar  
     5     2    19 ar  
     6     2    28 1   
     7     3    24 1   
     8     3    29 1   
     9     3    30 1   
    10     3    31 1   
    11     4     5 1   
    12     4    27 1   
    13     4    32 1   
    14     4    33 1   
    15     5     6 1   
    16     5    21 1   
    17     5    34 1   
    18     6    23 1   
    19     6    35 1   
    20     6    36 1   
    21     7    21 1   
    22     7    23 1   
    23     7    37 1   
    24     7    38 1   
    25     8    13 1   
    26     8    26 1   
    27     8    39 1   
    28     8    40 1   
    29     9    25 1   
    30     9    41 1   
    31     9    42 1   
    32     9    43 1   
    33    10    11 ar  
    34    10    14 ar  
    35    10    44 1   
    36    11    12 ar  
    37    11    25 1   
    38    12    13 ar  
    39    12    45 1   
    40    13    15 ar  
    41    14    15 ar  
    42    14    20 ar  
    43    15    22 ar  
    44    16    17 ar  
    45    16    19 ar  
    46    16    46 1   
    47    17    20 ar  
    48    18    47 1   
    49    19    24 1   
    50    20    27 1   
    51    21    48 1   
    52    21    49 1   
    53    23    50 1   
    54    26    51 1   
@<TRIPOS>SUBSTRUCTURE
     1 H96         1 TEMP              0 ****  ****    0 ROOT
