@<TRIPOS>MOLECULE
H97
   85    87     1     0     0
SMALL
abcg2


@<TRIPOS>ATOM
      1 C1          -7.6820    -2.4560    -0.4160 c6         1 H97       0.175800
      2 F1           6.3660     1.0580    -0.4290 f          1 H97      -0.096667
      3 O1          -6.6580    -2.8080     0.4930 oh         1 H97      -0.660000
      4 C2          -8.9630    -2.2630     0.3820 c6         1 H97      -0.067400
      5 F2           7.5800    -0.4160     0.5540 f          1 H97      -0.096667
      6 O2         -10.1450    -0.9300     1.9440 oh         1 H97      -0.660000
      7 C3          -8.8890    -1.0590     1.3100 c6         1 H97       0.175800
      8 F3           5.5610    -0.0720     1.2160 f          1 H97      -0.096667
      9 O3           6.7780    -1.2150    -1.8990 oh         1 H97      -0.617000
     10 C4          -8.5210     0.2010     0.5170 c6         1 H97      -0.079700
     11 F4           6.9180    -3.0420     0.1750 f          1 H97      -0.096667
     12 O4           2.4320     5.2620     0.4680 oh         1 H97      -0.663000
     13 C5          -7.2510    -0.0090    -0.2560 c2         1 H97      -0.097400
     14 F5           5.3340    -3.4630    -1.2150 f          1 H97      -0.096667
     15 C6          -6.1720     0.7630    -0.0560 ce         1 H97      -0.172000
     16 F6           4.8700    -2.6770     0.7340 f          1 H97      -0.096667
     17 C7          -4.8830     0.6340    -0.7130 ce         1 H97      -0.189000
     18 C8          -3.8120     1.4230    -0.5300 c2         1 H97      -0.079400
     19 C9          -3.7550     2.6200     0.3810 c6         1 H97      -0.042200
     20 C10         -7.3290    -1.1800    -1.1880 c6         1 H97      -0.079700
     21 C11         -2.5480     2.5680     1.3230 c6         1 H97      -0.072400
     22 C12         -1.2350     2.2930     0.5890 c6         1 H97      -0.065400
     23 C13         -1.3200     1.0300    -0.2730 c5         1 H97      -0.032000
     24 C14         -2.5140     1.2140    -1.2440 c5         1 H97      -0.036500
     25 C15         -2.3540     0.0910    -2.2560 c5         1 H97      -0.069400
     26 C16         -0.8280    -0.0490    -2.4050 c5         1 H97      -0.080400
     27 C17         -0.1750     0.8190    -1.2950 c5         1 H97      -0.057700
     28 C18         -1.5030    -0.2120     0.6000 c3         1 H97      -0.081100
     29 C20          1.1460     0.2130    -0.8020 c3         1 H97      -0.036700
     30 C21          2.0810     0.0320    -2.0220 c3         1 H97      -0.017300
     31 C22          3.4090    -0.4260    -1.6560 c1         1 H97       0.016900
     32 C23          4.5010    -0.7870    -1.3080 c1         1 H97      -0.271100
     33 C24          5.8320    -1.1900    -0.8780 c3         1 H97       0.170100
     34 C25          5.7400    -2.6130    -0.2720 c3         1 H97       0.308000
     35 C26          6.3450    -0.1430     0.1420 c3         1 H97       0.308000
     36 C27          1.8430     0.9870     0.3190 c3         1 H97      -0.079400
     37 C28          2.3330     2.3830    -0.0510 c3         1 H97      -0.071400
     38 C29          3.0010     3.0650     1.1370 c3         1 H97      -0.062400
     39 C30          3.5420     4.4740     0.8820 c3         1 H97       0.184000
     40 C31          4.6250     4.4700    -0.1970 c3         1 H97      -0.121100
     41 C32          4.1220     5.0320     2.1820 c3         1 H97      -0.121100
     42 H1          -7.8430    -3.2630    -1.1440 h1         1 H97       0.041200
     43 HO1         -5.8250    -2.8430     0.0130 ho         1 H97       0.441500
     44 H2          -9.7860    -2.1180    -0.3250 hc         1 H97       0.060700
     45 H2A         -9.1870    -3.1690     0.9510 hc         1 H97       0.060700
     46 HO2        -10.0870    -0.2120     2.5810 ho         1 H97       0.441500
     47 H3          -8.1020    -1.2300     2.0560 h1         1 H97       0.041200
     48 HO3          6.3400    -1.2820    -2.7550 ho         1 H97       0.485000
     49 H4          -9.3450     0.4160    -0.1750 hc         1 H97       0.050700
     50 H4A         -8.4280     1.0560     1.1940 hc         1 H97       0.050700
     51 HO4          2.7460     6.1570     0.3030 ho         1 H97       0.438000
     52 H6          -6.2760     1.5590     0.6750 ha         1 H97       0.170000
     53 H7          -4.7830    -0.1770    -1.4250 ha         1 H97       0.166000
     54 H9          -3.6670     3.5170    -0.2450 hc         1 H97       0.047200
     55 H9A         -4.6680     2.7410     0.9630 hc         1 H97       0.047200
     56 H10         -6.4110    -1.3330    -1.7590 hc         1 H97       0.050700
     57 H10A        -8.1200    -1.0060    -1.9270 hc         1 H97       0.050700
     58 H11         -2.4730     3.5160     1.8610 hc         1 H97       0.042200
     59 H11A        -2.7160     1.8010     2.0830 hc         1 H97       0.042200
     60 H12         -1.0020     3.1460    -0.0600 hc         1 H97       0.046200
     61 H12A        -0.4290     2.2300     1.3200 hc         1 H97       0.046200
     62 H14         -2.3040     2.1550    -1.7780 hc         1 H97       0.054700
     63 H15         -2.7920    -0.8400    -1.8910 hc         1 H97       0.044700
     64 H15A        -2.8480     0.3220    -3.2020 hc         1 H97       0.044700
     65 H16         -0.5290    -1.0950    -2.3020 hc         1 H97       0.039700
     66 H16A        -0.4930     0.2700    -3.3930 hc         1 H97       0.039700
     67 H17          0.0480     1.8060    -1.7210 hc         1 H97       0.051700
     68 H18         -2.4310    -0.1780     1.1720 hc         1 H97       0.035700
     69 H18A        -1.5290    -1.1310     0.0110 hc         1 H97       0.035700
     70 H18B        -0.6850    -0.3100     1.3180 hc         1 H97       0.035700
     71 H20          0.9340    -0.7910    -0.4180 hc         1 H97       0.056700
     72 H21          1.6470    -0.6830    -2.7230 hc         1 H97       0.070200
     73 H21A         2.1750     0.9740    -2.5700 hc         1 H97       0.070200
     74 H27          1.1740     1.0500     1.1790 hc         1 H97       0.047700
     75 H27A         2.6980     0.3990     0.6670 hc         1 H97       0.047700
     76 H28          3.0460     2.3080    -0.8760 hc         1 H97       0.045200
     77 H28A         1.5030     2.9970    -0.4100 hc         1 H97       0.045200
     78 H29          2.2880     3.1120     1.9680 hc         1 H97       0.045700
     79 H29A         3.8320     2.4430     1.4860 hc         1 H97       0.045700
     80 H31          5.0250     5.4760    -0.3490 hc         1 H97       0.041033
     81 H31A         5.4590     3.8300     0.0930 hc         1 H97       0.041033
     82 H31B         4.2470     4.1140    -1.1560 hc         1 H97       0.041033
     83 H32          3.3730     5.0480     2.9740 hc         1 H97       0.041033
     84 H32A         4.9630     4.4270     2.5260 hc         1 H97       0.041033
     85 H32B         4.4900     6.0520     2.0440 hc         1 H97       0.041033
@<TRIPOS>BOND
     1     1     3 1   
     2     1     4 1   
     3     1    20 1   
     4     1    42 1   
     5     2    35 1   
     6     3    43 1   
     7     4     7 1   
     8     4    44 1   
     9     4    45 1   
    10     5    35 1   
    11     6     7 1   
    12     6    46 1   
    13     7    10 1   
    14     7    47 1   
    15     8    35 1   
    16     9    33 1   
    17     9    48 1   
    18    10    13 1   
    19    10    49 1   
    20    10    50 1   
    21    11    34 1   
    22    12    39 1   
    23    12    51 1   
    24    13    15 2   
    25    13    20 1   
    26    14    34 1   
    27    15    17 1   
    28    15    52 1   
    29    16    34 1   
    30    17    18 2   
    31    17    53 1   
    32    18    19 1   
    33    18    24 1   
    34    19    21 1   
    35    19    54 1   
    36    19    55 1   
    37    20    56 1   
    38    20    57 1   
    39    21    22 1   
    40    21    58 1   
    41    21    59 1   
    42    22    23 1   
    43    22    60 1   
    44    22    61 1   
    45    23    24 1   
    46    23    27 1   
    47    23    28 1   
    48    24    25 1   
    49    24    62 1   
    50    25    26 1   
    51    25    63 1   
    52    25    64 1   
    53    26    27 1   
    54    26    65 1   
    55    26    66 1   
    56    27    29 1   
    57    27    67 1   
    58    28    68 1   
    59    28    69 1   
    60    28    70 1   
    61    29    30 1   
    62    29    36 1   
    63    29    71 1   
    64    30    31 1   
    65    30    72 1   
    66    30    73 1   
    67    31    32 3   
    68    32    33 1   
    69    33    34 1   
    70    33    35 1   
    71    36    37 1   
    72    36    74 1   
    73    36    75 1   
    74    37    38 1   
    75    37    76 1   
    76    37    77 1   
    77    38    39 1   
    78    38    78 1   
    79    38    79 1   
    80    39    40 1   
    81    39    41 1   
    82    40    80 1   
    83    40    81 1   
    84    40    82 1   
    85    41    83 1   
    86    41    84 1   
    87    41    85 1   
@<TRIPOS>SUBSTRUCTURE
     1 H97         1 TEMP              0 ****  ****    0 ROOT
