@<TRIPOS>MOLECULE
H97
   85    87     1     0     0
SMALL
No Charge or Current Charge


@<TRIPOS>ATOM
      1 C1          -7.7820    -2.4890    -0.2440 c6         1 H97       0.175800
      2 F1           6.6850     1.2200    -1.0870 f          1 H97      -0.096667
      3 O1          -6.8120    -2.7180     0.7830 oh         1 H97      -0.660000
      4 C2          -9.1670    -2.1710     0.3770 c6         1 H97      -0.067400
      5 F2           7.9750    -0.1350     0.0300 f          1 H97      -0.096667
      6 O2         -10.4950    -0.5320     1.6070 oh         1 H97      -0.660000
      7 C3          -9.1740    -0.8170     1.1310 c6         1 H97       0.175800
      8 F3           6.0050     0.3920     0.8120 f          1 H97      -0.096667
      9 O3           6.7880    -1.3530    -2.3140 oh         1 H97      -0.617000
     10 C4          -8.6840     0.3300     0.2100 c6         1 H97      -0.079700
     11 F4           7.3110    -2.8190     0.1270 f          1 H97      -0.096667
     12 O4           2.3590     5.2980     0.6970 oh         1 H97      -0.663000
     13 C5          -7.3240     0.0100    -0.4090 c2         1 H97      -0.097400
     14 F5           5.5220    -3.4900    -0.9180 f          1 H97      -0.096667
     15 C6          -6.2690     0.8510    -0.2610 ce         1 H97      -0.172000
     16 F6           5.3350    -2.3150     0.9100 f          1 H97      -0.096667
     17 C7          -4.9160     0.6720    -0.8270 ce         1 H97      -0.189000
     18 C8          -3.8060     1.3750    -0.4630 c2         1 H97      -0.079400
     19 C9          -3.7600     2.4890     0.5880 c6         1 H97      -0.042200
     20 C10         -7.3070    -1.3300    -1.1540 c6         1 H97      -0.079700
     21 C11         -2.5040     2.4100     1.4920 c6         1 H97      -0.072400
     22 C12         -1.2000     2.1390     0.6930 c6         1 H97      -0.065400
     23 C13         -1.3150     0.8720    -0.2230 c5         1 H97      -0.032000
     24 C14         -2.4870     1.1360    -1.2340 c5         1 H97      -0.036500
     25 C15         -2.3990    -0.1070    -2.1580 c5         1 H97      -0.069400
     26 C16         -0.8620    -0.2500    -2.3740 c5         1 H97      -0.080400
     27 C17         -0.1660     0.6740    -1.2970 c5         1 H97      -0.057700
     28 C18         -1.5000    -0.3920     0.6870 c3         1 H97      -0.081100
     29 C20          1.2460     0.1170    -0.8650 c3         1 H97      -0.036700
     30 C21          2.1860    -0.0300    -2.1120 c3         1 H97      -0.017300
     31 C22          3.5510    -0.4810    -1.8120 c1         1 H97       0.016900
     32 C23          4.6800    -0.7980    -1.5170 c1         1 H97      -0.271100
     33 C24          6.0540    -1.1280    -1.0950 c3         1 H97       0.170100
     34 C25          6.0570    -2.4520    -0.2290 c3         1 H97       0.308000
     35 C26          6.6880     0.1000    -0.3220 c3         1 H97       0.308000
     36 C27          1.9440     0.8750     0.3120 c3         1 H97      -0.079400
     37 C28          2.3500     2.3400     0.0190 c3         1 H97      -0.071400
     38 C29          3.0240     3.0220     1.2380 c3         1 H97      -0.062400
     39 C30          3.4920     4.4950     1.0320 c3         1 H97       0.184000
     40 C31          4.5280     4.6290    -0.1100 c3         1 H97      -0.121100
     41 C32          4.0800     5.0520     2.3480 c3         1 H97      -0.121100
     42 H1          -7.8810    -3.3970    -0.8580 h1         1 H97       0.041200
     43 HO1         -6.3630    -1.8560     0.9220 ho         1 H97       0.441500
     44 H2          -9.9210    -2.1500    -0.4220 hc         1 H97       0.060700
     45 H2A         -9.4630    -2.9800     1.0580 hc         1 H97       0.060700
     46 HO2        -10.4330     0.2980     2.1290 ho         1 H97       0.441500
     47 H3          -8.4830    -0.8920     1.9850 h1         1 H97       0.041200
     48 HO3          6.1250    -1.6300    -2.9840 ho         1 H97       0.485000
     49 H4          -9.4120     0.4960    -0.5950 hc         1 H97       0.050700
     50 H4A         -8.6380     1.2670     0.7810 hc         1 H97       0.050700
     51 HO4          2.6880     6.2140     0.5740 ho         1 H97       0.438000
     52 H6          -6.4290     1.7650     0.3100 ha         1 H97       0.170000
     53 H7          -4.8540    -0.0620    -1.6230 ha         1 H97       0.166000
     54 H9          -3.7670     3.4570     0.0690 hc         1 H97       0.047200
     55 H9A         -4.6440     2.4820     1.2350 hc         1 H97       0.047200
     56 H10         -6.3200    -1.5800    -1.5570 hc         1 H97       0.050700
     57 H10A        -7.9730    -1.2600    -2.0250 hc         1 H97       0.050700
     58 H11         -2.4010     3.3470     2.0560 hc         1 H97       0.042200
     59 H11A        -2.6480     1.6260     2.2480 hc         1 H97       0.042200
     60 H12         -0.9690     3.0200     0.0780 hc         1 H97       0.046200
     61 H12A        -0.3830     2.0480     1.4130 hc         1 H97       0.046200
     62 H14         -2.2860     2.0370    -1.8280 hc         1 H97       0.054700
     63 H15         -2.8090    -1.0110    -1.6920 hc         1 H97       0.044700
     64 H15A        -2.9340     0.0400    -3.1030 hc         1 H97       0.044700
     65 H16         -0.5680    -1.3000    -2.2690 hc         1 H97       0.039700
     66 H16A        -0.5760     0.0520    -3.3890 hc         1 H97       0.039700
     67 H17          0.0430     1.6460    -1.7620 hc         1 H97       0.051700
     68 H18         -2.4840    -0.4150     1.1690 hc         1 H97       0.035700
     69 H18A        -1.3990    -1.3310     0.1310 hc         1 H97       0.035700
     70 H18B        -0.7460    -0.4200     1.4820 hc         1 H97       0.035700
     71 H20          1.0870    -0.9020    -0.4900 hc         1 H97       0.056700
     72 H21          1.7570    -0.7430    -2.8250 hc         1 H97       0.070200
     73 H21A         2.2520     0.9300    -2.6380 hc         1 H97       0.070200
     74 H27          1.3120     0.8280     1.2010 hc         1 H97       0.047700
     75 H27A         2.8420     0.3250     0.6160 hc         1 H97       0.047700
     76 H28          3.0430     2.3510    -0.8300 hc         1 H97       0.045200
     77 H28A         1.4680     2.9170    -0.2800 hc         1 H97       0.045200
     78 H29          2.3230     2.9900     2.0810 hc         1 H97       0.045700
     79 H29A         3.8910     2.4200     1.5380 hc         1 H97       0.045700
     80 H31          4.9120     5.6540    -0.1740 hc         1 H97       0.041033
     81 H31A         5.3800     3.9590     0.0600 hc         1 H97       0.041033
     82 H31B         4.0880     4.3810    -1.0840 hc         1 H97       0.041033
     83 H32          3.3430     5.0020     3.1590 hc         1 H97       0.041033
     84 H32A         4.9600     4.4730     2.6540 hc         1 H97       0.041033
     85 H32B         4.3880     6.0980     2.2340 hc         1 H97       0.041033
@<TRIPOS>BOND
     1     1     3 1   
     2     1     4 1   
     3     1    20 1   
     4     1    42 1   
     5     2    35 1   
     6     3    43 1   
     7     4     7 1   
     8     4    44 1   
     9     4    45 1   
    10     5    35 1   
    11     6     7 1   
    12     6    46 1   
    13     7    10 1   
    14     7    47 1   
    15     8    35 1   
    16     9    33 1   
    17     9    48 1   
    18    10    13 1   
    19    10    49 1   
    20    10    50 1   
    21    11    34 1   
    22    12    39 1   
    23    12    51 1   
    24    13    15 2   
    25    13    20 1   
    26    14    34 1   
    27    15    17 1   
    28    15    52 1   
    29    16    34 1   
    30    17    18 2   
    31    17    53 1   
    32    18    19 1   
    33    18    24 1   
    34    19    21 1   
    35    19    54 1   
    36    19    55 1   
    37    20    56 1   
    38    20    57 1   
    39    21    22 1   
    40    21    58 1   
    41    21    59 1   
    42    22    23 1   
    43    22    60 1   
    44    22    61 1   
    45    23    24 1   
    46    23    27 1   
    47    23    28 1   
    48    24    25 1   
    49    24    62 1   
    50    25    26 1   
    51    25    63 1   
    52    25    64 1   
    53    26    27 1   
    54    26    65 1   
    55    26    66 1   
    56    27    29 1   
    57    27    67 1   
    58    28    68 1   
    59    28    69 1   
    60    28    70 1   
    61    29    30 1   
    62    29    36 1   
    63    29    71 1   
    64    30    31 1   
    65    30    72 1   
    66    30    73 1   
    67    31    32 3   
    68    32    33 1   
    69    33    34 1   
    70    33    35 1   
    71    36    37 1   
    72    36    74 1   
    73    36    75 1   
    74    37    38 1   
    75    37    76 1   
    76    37    77 1   
    77    38    39 1   
    78    38    78 1   
    79    38    79 1   
    80    39    40 1   
    81    39    41 1   
    82    40    80 1   
    83    40    81 1   
    84    40    82 1   
    85    41    83 1   
    86    41    84 1   
    87    41    85 1   
@<TRIPOS>SUBSTRUCTURE
     1 H97         1 TEMP              0 ****  ****    0 ROOT
