@<TRIPOS>MOLECULE
H98
   49    50     1     0     0
SMALL
No Charge or Current Charge


@<TRIPOS>ATOM
      1 C1          -1.1930     3.9360    -0.9640 c3         1 H98      -0.091100
      2 C2          -1.8090     2.5290    -0.8050 c3         1 H98       0.187500
      3 C3          -3.2490     2.5880    -0.2420 c3         1 H98      -0.031100
      4 C4          -3.8870     1.2070    -0.0900 ca         1 H98      -0.129300
      5 C5          -4.2550     0.4680    -1.2300 ca         1 H98      -0.072000
      6 C6          -4.8340    -0.8050    -1.0910 ca         1 H98      -0.170000
      7 C7          -5.0520    -1.3530     0.1820 ca         1 H98       0.142100
      8 C8          -4.6860    -0.6140     1.3280 ca         1 H98      -0.170000
      9 C9          -4.1070     0.6600     1.1890 ca         1 H98      -0.072000
     10 O1          -5.6240    -2.6070     0.2560 os         1 H98      -0.341100
     11 C10         -5.8880    -3.2570     1.5120 c3         1 H98       0.147900
     12 N1          -0.9790     1.7040     0.0930 n7         1 H98      -0.896400
     13 C11          0.2670     1.1360    -0.5070 c3         1 H98       0.115800
     14 C12          1.1470     0.4930     0.6000 c3         1 H98       0.224600
     15 C13          2.6250     0.3800     0.2230 ca         1 H98      -0.094300
     16 C14          3.2220    -0.8910     0.0870 ca         1 H98      -0.098000
     17 C15          4.5860    -1.0160    -0.2680 ca         1 H98      -0.057000
     18 C16          5.3450     0.1550    -0.4850 ca         1 H98       0.088100
     19 C17          4.7550     1.4210    -0.3490 ca         1 H98      -0.182000
     20 C18          3.4010     1.5350     0.0040 ca         1 H98      -0.066000
     21 O2           6.6650     0.0680    -0.8290 oh         1 H98      -0.556100
     22 N2           5.2400    -2.2740    -0.4200 ns         1 H98      -0.147000
     23 C19          4.8030    -3.5850    -0.2940 c          1 H98       0.604900
     24 O3           3.6600    -3.9280    -0.0000 o          1 H98      -0.591100
     25 O4           0.9660     1.3070     1.7550 oh         1 H98      -0.665000
     26 H1          -1.8310     4.5630    -1.5970 hc         1 H98       0.039033
     27 H2          -1.0860     4.4290     0.0100 hc         1 H98       0.039033
     28 H3          -0.2050     3.8860    -1.4360 hc         1 H98       0.039033
     29 H4          -1.8610     2.0600    -1.7970 h1         1 H98       0.025700
     30 H5          -3.2370     3.1140     0.7210 hc         1 H98       0.055200
     31 H6          -3.8650     3.2000    -0.9120 hc         1 H98       0.055200
     32 H7          -4.0920     0.8790    -2.2240 ha         1 H98       0.113500
     33 H8          -5.1150    -1.3700    -1.9760 ha         1 H98       0.123000
     34 H9          -4.8410    -1.0090     2.3280 ha         1 H98       0.123000
     35 H10         -3.8260     1.2200     2.0790 ha         1 H98       0.113500
     36 H11         -4.9590    -3.4050     2.0780 h1         1 H98       0.040700
     37 H12         -6.5820    -2.6630     2.1200 h1         1 H98       0.040700
     38 H13         -6.3420    -4.2420     1.3420 h1         1 H98       0.040700
     39 H14         -1.5750     0.9110     0.3700 hn         1 H98       0.424000
     40 H16          0.0330     0.3830    -1.2720 h1         1 H98       0.046700
     41 H17          0.8510     1.9260    -0.9960 h1         1 H98       0.046700
     42 H18          0.7470    -0.5100     0.8040 h1         1 H98       0.039700
     43 H19          2.6100    -1.7700     0.2610 ha         1 H98       0.146000
     44 H20          5.3400     2.3240    -0.5140 ha         1 H98       0.113000
     45 H21          2.9550     2.5210     0.1100 ha         1 H98       0.130000
     46 H22          7.0210     0.9770    -0.9350 ho         1 H98       0.472000
     47 H23          6.2170    -2.1890    -0.6700 hn         1 H98       0.166000
     48 H24          5.6190    -4.3040    -0.4920 h5         1 H98       0.012200
     49 H25          0.1370     1.7890     1.4880 ho         1 H98       0.472000
@<TRIPOS>BOND
     1     1     2 1   
     2     1    26 1   
     3     1    27 1   
     4     1    28 1   
     5     2     3 1   
     6     2    12 1   
     7     2    29 1   
     8     3     4 1   
     9     3    30 1   
    10     3    31 1   
    11     4     5 ar  
    12     4     9 ar  
    13     5     6 ar  
    14     5    32 1   
    15     6     7 ar  
    16     6    33 1   
    17     7     8 ar  
    18     7    10 1   
    19     8     9 ar  
    20     8    34 1   
    21     9    35 1   
    22    10    11 1   
    23    11    36 1   
    24    11    37 1   
    25    11    38 1   
    26    12    13 1   
    27    12    39 1   
    28    13    14 1   
    29    13    40 1   
    30    13    41 1   
    31    14    15 1   
    32    14    25 1   
    33    14    42 1   
    34    15    16 ar  
    35    15    20 ar  
    36    16    17 ar  
    37    16    43 1   
    38    17    18 ar  
    39    17    22 1   
    40    18    19 ar  
    41    18    21 1   
    42    19    20 ar  
    43    19    44 1   
    44    20    45 1   
    45    21    46 1   
    46    22    23 1   
    47    22    47 1   
    48    23    24 2   
    49    23    48 1   
    50    25    49 1   
@<TRIPOS>SUBSTRUCTURE
     1 H98         1 TEMP              0 ****  ****    0 ROOT
