@<TRIPOS>MOLECULE
H98
   49    50     1     0     0
SMALL
bcc


@<TRIPOS>ATOM
      1 C1          -1.2080     3.7340    -1.1670 c3         1 H98      -0.091100
      2 C2          -1.7410     2.3360    -0.8900 c3         1 H98       0.187500
      3 C3          -3.1850     2.4220    -0.3800 c3         1 H98      -0.031100
      4 C4          -3.8290     1.0800    -0.1720 ca         1 H98      -0.129300
      5 C5          -4.2590     0.3190    -1.2620 ca         1 H98      -0.090000
      6 C6          -4.8210    -0.9320    -1.0930 ca         1 H98      -0.188000
      7 C7          -4.9720    -1.4690     0.1880 ca         1 H98       0.142100
      8 C8          -4.5530    -0.7260     1.2870 ca         1 H98      -0.188000
      9 C9          -3.9900     0.5330     1.0940 ca         1 H98      -0.090000
     10 O1          -5.5300    -2.6940     0.2610 os         1 H98      -0.317900
     11 C10         -5.6830    -3.2910     1.5320 c3         1 H98       0.124700
     12 N1          -0.9240     1.6490     0.1040 n7         1 H98      -0.841200
     13 C11          0.3880     1.2180    -0.3430 c3         1 H98       0.115800
     14 C12          1.2430     0.9090     0.8900 c3         1 H98       0.201400
     15 C13          2.6710     0.6460     0.4910 ca         1 H98      -0.094300
     16 C14          3.0560    -0.6540     0.1800 ca         1 H98      -0.116000
     17 C15          4.3440    -0.9380    -0.2630 ca         1 H98       0.035600
     18 C16          5.2670     0.1130    -0.3800 ca         1 H98       0.088100
     19 C17          4.8850     1.4060    -0.0600 ca         1 H98      -0.200000
     20 C18          3.5930     1.6750     0.3680 ca         1 H98      -0.084000
     21 O2           6.5080    -0.2100    -0.8020 oh         1 H98      -0.517100
     22 N2           4.8010    -2.2220    -0.5860 ns         1 H98      -0.473100
     23 C19          4.0950    -3.3560    -0.7700 c          1 H98       0.671900
     24 O3           2.8910    -3.4890    -0.6680 o          1 H98      -0.591100
     25 O4           1.1670     1.9880     1.7860 oh         1 H98      -0.602800
     26 H1          -1.8290     4.2300    -1.9130 hc         1 H98       0.039033
     27 H2          -1.2200     4.3370    -0.2570 hc         1 H98       0.039033
     28 H3          -0.1880     3.7230    -1.5520 hc         1 H98       0.039033
     29 H4          -1.7540     1.7780    -1.8400 h1         1 H98       0.025700
     30 H5          -3.1920     2.9910     0.5540 hc         1 H98       0.055200
     31 H6          -3.7640     3.0010    -1.1040 hc         1 H98       0.055200
     32 H7          -4.1540     0.7140    -2.2660 ha         1 H98       0.131500
     33 H8          -5.1490    -1.5040    -1.9530 ha         1 H98       0.141000
     34 H9          -4.6570    -1.1000     2.2960 ha         1 H98       0.141000
     35 H10         -3.6740     1.0960     1.9650 ha         1 H98       0.131500
     36 H11         -4.7230    -3.4360     2.0340 h1         1 H98       0.040700
     37 H12         -6.3360    -2.7050     2.1860 h1         1 H98       0.040700
     38 H13         -6.1400    -4.2630     1.3650 h1         1 H98       0.040700
     39 H14         -1.4290     0.8340     0.4380 hn         1 H98       0.368800
     40 H16          0.3630     0.3460    -1.0100 h1         1 H98       0.046700
     41 H17          0.8640     2.0300    -0.8980 h1         1 H98       0.046700
     42 H18          0.8430    -0.0070     1.3560 h1         1 H98       0.039700
     43 H19          2.3390    -1.4530     0.2900 ha         1 H98       0.164000
     44 H20          5.6040     2.2120    -0.1490 ha         1 H98       0.131000
     45 H21          3.3170     2.6940     0.6060 ha         1 H98       0.148000
     46 H22          7.0730     0.5700    -0.8310 ho         1 H98       0.433000
     47 H23          5.7950    -2.3110    -0.7370 hn         1 H98       0.332500
     48 H24          4.7610    -4.1890    -1.0370 h5         1 H98       0.012200
     49 H25          0.2700     2.3400     1.6560 ho         1 H98       0.433000
@<TRIPOS>BOND
     1     1     2 1   
     2     1    26 1   
     3     1    27 1   
     4     1    28 1   
     5     2     3 1   
     6     2    12 1   
     7     2    29 1   
     8     3     4 1   
     9     3    30 1   
    10     3    31 1   
    11     4     5 ar  
    12     4     9 ar  
    13     5     6 ar  
    14     5    32 1   
    15     6     7 ar  
    16     6    33 1   
    17     7     8 ar  
    18     7    10 1   
    19     8     9 ar  
    20     8    34 1   
    21     9    35 1   
    22    10    11 1   
    23    11    36 1   
    24    11    37 1   
    25    11    38 1   
    26    12    13 1   
    27    12    39 1   
    28    13    14 1   
    29    13    40 1   
    30    13    41 1   
    31    14    15 1   
    32    14    25 1   
    33    14    42 1   
    34    15    16 ar  
    35    15    20 ar  
    36    16    17 ar  
    37    16    43 1   
    38    17    18 ar  
    39    17    22 1   
    40    18    19 ar  
    41    18    21 1   
    42    19    20 ar  
    43    19    44 1   
    44    20    45 1   
    45    21    46 1   
    46    22    23 1   
    47    22    47 1   
    48    23    24 2   
    49    23    48 1   
    50    25    49 1   
@<TRIPOS>SUBSTRUCTURE
     1 H98         1 TEMP              0 ****  ****    0 ROOT
