@<TRIPOS>MOLECULE
H99
   53    56     1     0     0
SMALL
bcc


@<TRIPOS>ATOM
      1 C10         83.1420   143.0460    15.6390 ca         1 H99       0.396600
      2 C13         83.6680   140.5120    14.5140 ca         1 H99       0.140100
      3 C17         79.1980   140.4210    15.8620 c6         1 H99      -0.060700
      4 C21         79.3080   138.6790    14.0600 c6         1 H99       0.149300
      5 C22         79.4470   138.9470    15.5570 c6         1 H99      -0.111400
      6 C24         79.0560   144.1190    21.1890 c3         1 H99       0.121700
      7 C26         84.6880   139.1330    12.8590 c3         1 H99       0.125700
      8 C01         80.4810   144.8060    19.4290 ca         1 H99       0.163100
      9 C02         81.0970   145.9110    18.7640 ca         1 H99      -0.139000
     10 C03         81.8890   145.7060    17.6860 ca         1 H99      -0.133300
     11 C04         82.1230   144.3900    17.1850 ca         1 H99       0.383600
     12 C05         81.4970   143.2840    17.8450 ca         1 H99      -0.058300
     13 C06         80.6790   143.5290    18.9830 ca         1 H99      -0.246000
     14 C08         82.8620   140.6070    15.6140 ca         1 H99      -0.159000
     15 C09         82.5710   141.8590    16.2030 ca         1 H99      -0.065300
     16 C11         83.9870   142.9130    14.4930 ca         1 H99      -0.171600
     17 C12         84.2380   141.6880    13.9530 ca         1 H99      -0.153000
     18 C14         81.7250   142.0080    17.3170 ca         1 H99       0.034900
     19 C16         79.2770   140.7410    17.3460 c3         1 H99       0.017700
     20 C18         77.8370   140.8340    15.3000 c6         1 H99      -0.111400
     21 C19         77.7530   140.5000    13.8110 c6         1 H99       0.149300
     22 C27         84.6250   144.0990    13.8390 c3         1 H99       0.485200
     23 F28         83.6940   144.9850    13.3910 f          1 H99      -0.230800
     24 F29         85.4220   144.7770    14.7090 f          1 H99      -0.230800
     25 N07         82.9080   144.2580    16.1270 nb         1 H99      -0.615000
     26 N20         78.0380   139.1100    13.4980 n7         1 H99      -0.790200
     27 O23         79.7290   145.1440    20.4840 os         1 H99      -0.310900
     28 O25         83.8810   139.2860    14.0130 os         1 H99      -0.314900
     29 S15         80.9560   140.5890    18.0550 ss         1 H99      -0.301000
     30 H1          79.9600   141.0150    15.3410 hc         1 H99       0.061700
     31 H2          79.4410   137.6160    13.8510 h1         1 H99       0.053450
     32 H3          80.1110   139.2040    13.5290 h1         1 H99       0.053450
     33 H4          78.7190   138.3380    16.1060 hc         1 H99       0.045950
     34 H5          80.4360   138.6370    15.9010 hc         1 H99       0.045950
     35 H6          78.4900   144.6060    21.9780 h1         1 H99       0.045033
     36 H7          78.3660   143.5710    20.5420 h1         1 H99       0.045033
     37 H8          79.7550   143.4100    21.6400 h1         1 H99       0.045033
     38 H9          84.7040   138.0690    12.6390 h1         1 H99       0.044033
     39 H10         84.2740   139.6630    11.9980 h1         1 H99       0.044033
     40 H11         85.7130   139.4710    13.0270 h1         1 H99       0.044033
     41 H12         80.9210   146.9100    19.1410 ha         1 H99       0.152000
     42 H13         82.3640   146.5360    17.1800 ha         1 H99       0.159000
     43 H14         80.2370   142.6810    19.4850 ha         1 H99       0.156000
     44 H15         82.4340   139.7100    16.0390 ha         1 H99       0.170000
     45 H16         84.8810   141.6200    13.0850 ha         1 H99       0.139000
     46 H17         78.9150   141.7500    17.5520 h1         1 H99       0.069700
     47 H18         78.6620   140.0490    17.9280 h1         1 H99       0.069700
     48 H19         77.6740   141.9050    15.4500 hc         1 H99       0.045950
     49 H20         77.0400   140.3110    15.8400 hc         1 H99       0.045950
     50 H21         78.4700   141.1250    13.2670 h1         1 H99       0.053450
     51 H22         76.7640   140.7500    13.4220 h1         1 H99       0.053450
     52 H23         85.2390   143.8000    12.9870 h2         1 H99       0.047700
     53 H24         77.2990   138.5310    13.8810 hn         1 H99       0.345800
@<TRIPOS>BOND
     1     1    15 ar  
     2     1    16 ar  
     3     1    25 ar  
     4     2    14 ar  
     5     2    17 ar  
     6     2    28 1   
     7     3     5 1   
     8     3    19 1   
     9     3    20 1   
    10     3    30 1   
    11     4     5 1   
    12     4    26 1   
    13     4    31 1   
    14     4    32 1   
    15     5    33 1   
    16     5    34 1   
    17     6    27 1   
    18     6    35 1   
    19     6    36 1   
    20     6    37 1   
    21     7    28 1   
    22     7    38 1   
    23     7    39 1   
    24     7    40 1   
    25     8     9 ar  
    26     8    13 ar  
    27     8    27 1   
    28     9    10 ar  
    29     9    41 1   
    30    10    11 ar  
    31    10    42 1   
    32    11    12 ar  
    33    11    25 ar  
    34    12    13 ar  
    35    12    18 ar  
    36    13    43 1   
    37    14    15 ar  
    38    14    44 1   
    39    15    18 ar  
    40    16    17 ar  
    41    16    22 1   
    42    17    45 1   
    43    18    29 1   
    44    19    29 1   
    45    19    46 1   
    46    19    47 1   
    47    20    21 1   
    48    20    48 1   
    49    20    49 1   
    50    21    26 1   
    51    21    50 1   
    52    21    51 1   
    53    22    23 1   
    54    22    24 1   
    55    22    52 1   
    56    26    53 1   
@<TRIPOS>SUBSTRUCTURE
     1 H99         1 TEMP              0 ****  ****    0 ROOT
