@<TRIPOS>MOLECULE
H99
   53    56     1     0     0
SMALL
No Charge or Current Charge


@<TRIPOS>ATOM
      1 C10         83.1870   143.0170    15.5590 ca         1 H99       0.266000
      2 C13         83.8450   140.4410    14.5610 ca         1 H99       0.140100
      3 C17         79.1290   140.4980    15.9480 c6         1 H99      -0.060700
      4 C21         79.2770   138.9770    13.8970 c6         1 H99       0.149300
      5 C22         79.4790   139.0760    15.4280 c6         1 H99      -0.111400
      6 C24         78.9730   144.0210    21.2060 c3         1 H99       0.144900
      7 C26         84.9710   138.9120    12.9800 c3         1 H99       0.148900
      8 C01         80.4020   144.8060    19.3490 ca         1 H99       0.163100
      9 C02         80.9550   145.8980    18.6700 ca         1 H99      -0.121000
     10 C03         81.7850   145.6920    17.5570 ca         1 H99      -0.050000
     11 C04         82.0750   144.3950    17.0970 ca         1 H99       0.253000
     12 C05         81.5110   143.2830    17.7750 ca         1 H99       0.007000
     13 C06         80.6820   143.4980    18.9050 ca         1 H99      -0.228000
     14 C08         83.0110   140.5730    15.6750 ca         1 H99      -0.141000
     15 C09         82.6670   141.8470    16.1810 ca         1 H99       0.000000
     16 C11         84.0360   142.8750    14.4280 ca         1 H99      -0.106300
     17 C12         84.3550   141.5930    13.9360 ca         1 H99      -0.135000
     18 C14         81.8020   141.9790    17.2990 ca         1 H99      -0.092000
     19 C16         79.2900   140.6270    17.4900 c3         1 H99       0.065600
     20 C18         77.6920   140.8700    15.4940 c6         1 H99      -0.111400
     21 C19         77.5320   140.7200    13.9610 c6         1 H99       0.149300
     22 C27         84.6300   144.0850    13.7010 c3         1 H99       0.242600
     23 F28         83.6740   144.9000    13.1960 f          1 H99      -0.109500
     24 F29         85.4140   144.8350    14.5110 f          1 H99      -0.109500
     25 N07         82.8810   144.2520    16.0240 nb         1 H99      -0.615000
     26 N20         77.8920   139.3510    13.5210 n7         1 H99      -0.845400
     27 O23         79.5990   145.0670    20.4410 os         1 H99      -0.334100
     28 O25         84.1310   139.1640    14.1210 os         1 H99      -0.338100
     29 S15         81.0510   140.5260    18.0590 ss         1 H99      -0.222000
     30 H1          79.8230   141.2210    15.4960 hc         1 H99       0.061700
     31 H2          79.4890   137.9500    13.5630 h1         1 H99       0.053450
     32 H3          79.9920   139.6430    13.3900 h1         1 H99       0.053450
     33 H4          78.8500   138.3270    15.9310 hc         1 H99       0.045950
     34 H5          80.5170   138.8190    15.6720 hc         1 H99       0.045950
     35 H6          78.3780   144.4500    22.0210 h1         1 H99       0.045033
     36 H7          78.3030   143.4230    20.5750 h1         1 H99       0.045033
     37 H8          79.7260   143.3570    21.6480 h1         1 H99       0.045033
     38 H9          85.0620   137.8320    12.8070 h1         1 H99       0.044033
     39 H10         84.5470   139.3650    12.0750 h1         1 H99       0.044033
     40 H11         85.9780   139.3170    13.1400 h1         1 H99       0.044033
     41 H12         80.7420   146.9090    19.0090 ha         1 H99       0.134000
     42 H13         82.2110   146.5480    17.0400 ha         1 H99       0.141000
     43 H14         80.2670   142.6540    19.4410 ha         1 H99       0.138000
     44 H15         82.6480   139.6630    16.1380 ha         1 H99       0.152000
     45 H16         85.0050   141.5100    13.0690 ha         1 H99       0.121000
     46 H17         78.8810   141.5920    17.8110 h1         1 H99       0.069700
     47 H18         78.7120   139.8350    17.9820 h1         1 H99       0.069700
     48 H19         77.4610   141.9050    15.7840 hc         1 H99       0.045950
     49 H20         76.9580   140.2320    16.0050 hc         1 H99       0.045950
     50 H21         78.1770   141.4530    13.4520 h1         1 H99       0.053450
     51 H22         76.4930   140.9410    13.6750 h1         1 H99       0.053450
     52 H23         85.2500   143.7460    12.8640 h2         1 H99       0.047700
     53 H24         77.2500   138.6910    13.9750 hn         1 H99       0.401000
@<TRIPOS>BOND
     1     1    15 ar  
     2     1    16 ar  
     3     1    25 ar  
     4     2    14 ar  
     5     2    17 ar  
     6     2    28 1   
     7     3     5 1   
     8     3    19 1   
     9     3    20 1   
    10     3    30 1   
    11     4     5 1   
    12     4    26 1   
    13     4    31 1   
    14     4    32 1   
    15     5    33 1   
    16     5    34 1   
    17     6    27 1   
    18     6    35 1   
    19     6    36 1   
    20     6    37 1   
    21     7    28 1   
    22     7    38 1   
    23     7    39 1   
    24     7    40 1   
    25     8     9 ar  
    26     8    13 ar  
    27     8    27 1   
    28     9    10 ar  
    29     9    41 1   
    30    10    11 ar  
    31    10    42 1   
    32    11    12 ar  
    33    11    25 ar  
    34    12    13 ar  
    35    12    18 ar  
    36    13    43 1   
    37    14    15 ar  
    38    14    44 1   
    39    15    18 ar  
    40    16    17 ar  
    41    16    22 1   
    42    17    45 1   
    43    18    29 1   
    44    19    29 1   
    45    19    46 1   
    46    19    47 1   
    47    20    21 1   
    48    20    48 1   
    49    20    49 1   
    50    21    26 1   
    51    21    50 1   
    52    21    51 1   
    53    22    23 1   
    54    22    24 1   
    55    22    52 1   
    56    26    53 1   
@<TRIPOS>SUBSTRUCTURE
     1 H99         1 TEMP              0 ****  ****    0 ROOT
