@<TRIPOS>MOLECULE
H9A
   21    20     1     0     0
SMALL
No Charge or Current Charge


@<TRIPOS>ATOM
      1 P1           0.5870     0.3360     0.1500 p5         1 H9A       1.399400
      2 O1           0.7930     0.0710     1.6060 o          1 H9A      -0.834000
      3 O2          -0.7070    -0.4400    -0.4270 os         1 H9A      -0.610400
      4 CM          -2.0000    -0.3410     0.1890 c3         1 H9A       0.239300
      5 CM2         -2.5180     1.1150     0.1400 c3         1 H9A      -0.102100
      6 CM1         -2.9210    -1.3190    -0.5660 c3         1 H9A      -0.102100
      7 C1           1.8690    -0.5520    -0.8250 c3         1 H9A      -0.429400
      8 C2           3.3200    -0.1010    -0.5580 c3         1 H9A      -0.050100
      9 O3           0.5970     1.7890    -0.2010 o          1 H9A      -0.834000
     10 H1          -1.9480    -0.6610     1.2390 h1         1 H9A       0.032700
     11 H2          -2.4460     1.5240    -0.8750 hc         1 H9A       0.026533
     12 H3          -3.5690     1.1530     0.4480 hc         1 H9A       0.026533
     13 H4          -1.9560     1.7610     0.8240 hc         1 H9A       0.026533
     14 H5          -3.0120    -1.0350    -1.6210 hc         1 H9A       0.026533
     15 H6          -2.5260    -2.3410    -0.5120 hc         1 H9A       0.026533
     16 H7          -3.9240    -1.3210    -0.1220 hc         1 H9A       0.026533
     17 H8           1.7640    -1.6190    -0.5990 hc         1 H9A       0.042200
     18 H9           1.6240    -0.4100    -1.8830 hc         1 H9A       0.042200
     19 H10          4.0190    -0.6760    -1.1760 hc         1 H9A       0.015700
     20 H11          3.4470     0.9620    -0.7970 hc         1 H9A       0.015700
     21 H12          3.5870    -0.2540     0.4950 hc         1 H9A       0.015700
@<TRIPOS>BOND
     1     1     2 1   
     2     1     3 1   
     3     1     7 1   
     4     1     9 1   
     5     3     4 1   
     6     4     5 1   
     7     4     6 1   
     8     4    10 1   
     9     5    11 1   
    10     5    12 1   
    11     5    13 1   
    12     6    14 1   
    13     6    15 1   
    14     6    16 1   
    15     7     8 1   
    16     7    17 1   
    17     7    18 1   
    18     8    19 1   
    19     8    20 1   
    20     8    21 1   
@<TRIPOS>SUBSTRUCTURE
     1 H9A         1 TEMP              0 ****  ****    0 ROOT
