@<TRIPOS>MOLECULE
H9A
   21    20     1     0     0
SMALL
bcc


@<TRIPOS>ATOM
      1 P1           0.6550    -0.0630     0.3670 p5         1 H9A       1.241600
      2 O1           0.8350    -1.1250     1.4240 o          1 H9A      -0.834000
      3 O2          -0.7240    -0.3830    -0.4920 os         1 H9A      -0.587200
      4 CM          -1.9800    -0.1410     0.1340 c3         1 H9A       0.216100
      5 CM2         -2.5750     1.1530    -0.3970 c3         1 H9A      -0.102100
      6 CM1         -2.8810    -1.3350    -0.1250 c3         1 H9A      -0.102100
      7 C1           1.8560    -0.3130    -0.9850 c3         1 H9A      -0.271600
      8 C2           3.2840    -0.0610    -0.5100 c3         1 H9A      -0.050100
      9 O3           0.6530     1.3830     0.8020 o          1 H9A      -0.834000
     10 H1          -1.8550    -0.0420     1.2190 h1         1 H9A       0.032700
     11 H2          -2.7470     1.0930    -1.4740 hc         1 H9A       0.026533
     12 H3          -3.5320     1.3650     0.0830 hc         1 H9A       0.026533
     13 H4          -1.9050     1.9890    -0.2010 hc         1 H9A       0.026533
     14 H5          -3.0250    -1.4940    -1.1960 hc         1 H9A       0.026533
     15 H6          -2.4590    -2.2460     0.3020 hc         1 H9A       0.026533
     16 H7          -3.8630    -1.1790     0.3230 hc         1 H9A       0.026533
     17 H8           1.7660    -1.3310    -1.3720 hc         1 H9A       0.042200
     18 H9           1.6160     0.3590    -1.8130 hc         1 H9A       0.042200
     19 H10          4.0030    -0.2210    -1.3140 hc         1 H9A       0.015700
     20 H11          3.4070     0.9620    -0.1550 hc         1 H9A       0.015700
     21 H12          3.5520    -0.7290     0.3090 hc         1 H9A       0.015700
@<TRIPOS>BOND
     1     1     2 1   
     2     1     3 1   
     3     1     7 1   
     4     1     9 1   
     5     3     4 1   
     6     4     5 1   
     7     4     6 1   
     8     4    10 1   
     9     5    11 1   
    10     5    12 1   
    11     5    13 1   
    12     6    14 1   
    13     6    15 1   
    14     6    16 1   
    15     7     8 1   
    16     7    17 1   
    17     7    18 1   
    18     8    19 1   
    19     8    20 1   
    20     8    21 1   
@<TRIPOS>SUBSTRUCTURE
     1 H9A         1 TEMP              0 ****  ****    0 ROOT
