@<TRIPOS>MOLECULE
H9B
   52    54     1     0     0
SMALL
No Charge or Current Charge


@<TRIPOS>ATOM
      1 C5          -1.8830     1.8840    -0.1430 ca         1 H9B      -0.028300
      2 C6          -1.0780     2.0570    -1.2850 ca         1 H9B      -0.099000
      3 C7           0.2870     1.7220    -1.2520 ca         1 H9B      -0.088500
      4 C8           0.8900     1.2130    -0.0750 cp         1 H9B      -0.046000
      5 C10         -1.2950     1.3940     1.0360 ca         1 H9B      -0.099000
      6 C15         -4.3600    -3.5660     0.3480 c3         1 H9B      -0.118400
      7 C17          2.3460     0.8580    -0.0410 cp         1 H9B       0.008000
      8 C20          5.1220     0.1850     0.0200 ca         1 H9B      -0.200300
      9 C21          4.3580    -0.0250    -1.1470 ca         1 H9B      -0.060500
     10 C22          2.9930     0.3100    -1.1750 ca         1 H9B      -0.110000
     11 C25          6.6090    -0.1880     0.0570 c3         1 H9B       0.357300
     12 F26          7.1990    -0.0780    -1.1560 f          1 H9B      -0.115000
     13 F27          7.3160     0.5970     0.9020 f          1 H9B      -0.115000
     14 C19          4.4880     0.7220     1.1600 ca         1 H9B      -0.060500
     15 C18          3.1230     1.0540     1.1270 ca         1 H9B      -0.110000
     16 C9           0.0690     1.0590     1.0700 ca         1 H9B      -0.088500
     17 C2          -3.3450     2.2480    -0.1530 cx         1 H9B      -0.073400
     18 C3          -4.1980     2.1570    -1.3990 cx         1 H9B      -0.113400
     19 C1          -4.4520     1.2130    -0.2460 cx         1 H9B       0.077400
     20 C23         -5.7380     1.4070     0.5790 c3         1 H9B       0.166800
     21 N24         -6.9230     0.7860    -0.0630 n8         1 H9B      -0.994200
     22 N4          -4.0600    -0.1580    -0.4960 ns         1 H9B      -0.487900
     23 C11         -3.7050    -1.0810     0.4710 c          1 H9B       0.609100
     24 O13         -3.6910    -0.8080     1.6670 o          1 H9B      -0.582100
     25 C12         -3.3130    -2.5040    -0.0780 c3         1 H9B       0.084500
     26 N14         -1.9340    -2.9740     0.2790 n8         1 H9B      -0.978200
     27 H1          -1.5020     2.4590    -2.2020 ha         1 H9B       0.110500
     28 H2           0.8850     1.8760    -2.1470 ha         1 H9B       0.113500
     29 H3          -1.9000     1.2670     1.9310 ha         1 H9B       0.110500
     30 H4          -4.3100    -3.7200     1.4340 hc         1 H9B       0.050200
     31 H5          -5.3610    -3.1700     0.1390 hc         1 H9B       0.050200
     32 H6           4.8150    -0.4530    -2.0370 ha         1 H9B       0.128000
     33 H7           2.4280     0.1260    -2.0860 ha         1 H9B       0.123000
     34 H8           5.0490     0.8850     2.0780 ha         1 H9B       0.128000
     35 H9           2.6670     1.4800     2.0160 ha         1 H9B       0.123000
     36 H10          0.4890     0.6640     1.9910 ha         1 H9B       0.113500
     37 H11         -3.5390     3.1030     0.4920 hc         1 H9B       0.085700
     38 H12         -4.9180     2.9510    -1.5740 hc         1 H9B       0.080200
     39 H13         -3.7600     1.7410    -2.3020 hc         1 H9B       0.080200
     40 H14         -5.6050     0.9690     1.5780 h1         1 H9B       0.047200
     41 H15         -5.9350     2.4800     0.7120 h1         1 H9B       0.047200
     42 H16         -6.7600    -0.2240    -0.1410 hn         1 H9B       0.392500
     43 H17         -7.7260     0.8590     0.5740 hn         1 H9B       0.392500
     44 H19         -4.0330    -0.4860    -1.4530 hn         1 H9B       0.317500
     45 H20         -3.3520    -2.4340    -1.1750 h1         1 H9B       0.062700
     46 H21         -1.8490    -3.0090     1.3020 hn         1 H9B       0.405500
     47 H22         -1.8280    -3.9540    -0.0070 hn         1 H9B       0.405500
     48 H24         -3.2790    -5.4210    -0.1180 hc         1 H9B       0.036033
     49 H25         -5.0420    -5.5950    -0.0740 hc         1 H9B       0.036033
     50 H26         -4.2700    -4.7980    -1.4590 hc         1 H9B       0.036033
     51 C16         -4.2240    -4.9270    -0.3710 c3         1 H9B      -0.093100
     52 F28          6.7840    -1.4650     0.4660 f          1 H9B      -0.115000
@<TRIPOS>BOND
     1     1     2 ar  
     2     1     5 ar  
     3     1    17 1   
     4     2     3 ar  
     5     2    27 1   
     6     3     4 ar  
     7     3    28 1   
     8     4     7 1   
     9     4    16 ar  
    10     5    16 ar  
    11     5    29 1   
    12     6    25 1   
    13     6    30 1   
    14     6    31 1   
    15     6    51 1   
    16     7    10 ar  
    17     7    15 ar  
    18     8     9 ar  
    19     8    11 1   
    20     8    14 ar  
    21     9    10 ar  
    22     9    32 1   
    23    10    33 1   
    24    11    12 1   
    25    11    13 1   
    26    11    52 1   
    27    14    15 ar  
    28    14    34 1   
    29    15    35 1   
    30    16    36 1   
    31    17    18 1   
    32    17    19 1   
    33    17    37 1   
    34    18    19 1   
    35    18    38 1   
    36    18    39 1   
    37    19    20 1   
    38    19    22 1   
    39    20    21 1   
    40    20    40 1   
    41    20    41 1   
    42    21    42 1   
    43    21    43 1   
    44    22    23 1   
    45    22    44 1   
    46    23    24 2   
    47    23    25 1   
    48    25    26 1   
    49    25    45 1   
    50    26    46 1   
    51    26    47 1   
    52    48    51 1   
    53    49    51 1   
    54    50    51 1   
@<TRIPOS>SUBSTRUCTURE
     1 H9B         1 TEMP              0 ****  ****    0 ROOT
