@<TRIPOS>MOLECULE
H9B
   52    54     1     0     0
SMALL
abcg2


@<TRIPOS>ATOM
      1 C5          -1.9110     1.8370     0.0340 ca         1 H9B      -0.028300
      2 C6          -1.3000     1.2750    -1.0850 ca         1 H9B      -0.099000
      3 C7           0.0460     0.9460    -1.0740 ca         1 H9B      -0.088500
      4 C8           0.8380     1.1830     0.0490 cp         1 H9B      -0.046000
      5 C10         -1.1150     2.0770     1.1540 ca         1 H9B      -0.099000
      6 C15         -4.3680    -3.2790    -0.2720 c3         1 H9B      -0.118400
      7 C17          2.2710     0.8360     0.0580 cp         1 H9B       0.008000
      8 C20          4.9950     0.1820     0.0720 ca         1 H9B      -0.200300
      9 C21          4.0850    -0.6240    -0.6030 ca         1 H9B      -0.060500
     10 C22          2.7400    -0.2980    -0.6070 ca         1 H9B      -0.110000
     11 C25          6.4390    -0.2030     0.1090 c3         1 H9B       0.357300
     12 F26          6.8500    -0.7280    -1.0530 f          1 H9B      -0.115000
     13 F27          7.2380     0.8350     0.3750 f          1 H9B      -0.115000
     14 C19          4.5450     1.3110     0.7440 ca         1 H9B      -0.060500
     15 C18          3.1970     1.6320     0.7320 ca         1 H9B      -0.110000
     16 C9           0.2320     1.7630     1.1640 ca         1 H9B      -0.088500
     17 C2          -3.3500     2.1710     0.1040 cx         1 H9B      -0.073400
     18 C3          -4.2540     2.2060    -1.0950 cx         1 H9B      -0.113400
     19 C1          -4.4220     1.1180    -0.0930 cx         1 H9B       0.077400
     20 C23         -5.6150     1.1410     0.8330 c3         1 H9B       0.166800
     21 N24         -6.7750     0.5410     0.1910 n8         1 H9B      -0.994200
     22 N4          -4.0040    -0.1790    -0.5200 ns         1 H9B      -0.487900
     23 C11         -3.3850    -1.0670     0.2860 c          1 H9B       0.609100
     24 O13         -3.1310    -0.8390     1.4550 o          1 H9B      -0.582100
     25 C12         -3.0960    -2.4150    -0.3620 c3         1 H9B       0.084500
     26 N14         -1.9130    -2.9870     0.2470 n8         1 H9B      -0.978200
     27 H1          -1.8660     1.0960    -1.9900 ha         1 H9B       0.110500
     28 H2           0.4870     0.5230    -1.9680 ha         1 H9B       0.113500
     29 H3          -1.5630     2.5090     2.0420 ha         1 H9B       0.110500
     30 H4          -4.6330    -3.4120     0.7820 hc         1 H9B       0.050200
     31 H5          -5.2020    -2.7450    -0.7370 hc         1 H9B       0.050200
     32 H6           4.4090    -1.5150    -1.1240 ha         1 H9B       0.128000
     33 H7           2.0470    -0.9500    -1.1240 ha         1 H9B       0.123000
     34 H8           5.2310     1.9580     1.2740 ha         1 H9B       0.128000
     35 H9           2.8720     2.5310     1.2390 ha         1 H9B       0.123000
     36 H10          0.8090     1.9520     2.0610 ha         1 H9B       0.113500
     37 H11         -3.5840     2.8890     0.8840 hc         1 H9B       0.085700
     38 H12         -5.0080     2.9820    -1.1380 hc         1 H9B       0.080200
     39 H13         -3.8350     1.9480    -2.0610 hc         1 H9B       0.080200
     40 H14         -5.3360     0.6630     1.7800 h1         1 H9B       0.047200
     41 H15         -5.8480     2.1810     1.0680 h1         1 H9B       0.047200
     42 H16         -6.6190    -0.4530     0.0820 hn         1 H9B       0.392500
     43 H17         -7.5710     0.6180     0.8120 hn         1 H9B       0.392500
     44 H19         -4.1760    -0.4370    -1.4780 hn         1 H9B       0.317500
     45 H20         -2.8740    -2.2540    -1.4230 h1         1 H9B       0.062700
     46 H21         -2.1100    -3.2380     1.2080 hn         1 H9B       0.405500
     47 H22         -1.6750    -3.8480    -0.2280 hn         1 H9B       0.405500
     48 H24         -3.4480    -5.2450    -0.4480 hc         1 H9B       0.036033
     49 H25         -5.1420    -5.1990    -0.9030 hc         1 H9B       0.036033
     50 H26         -3.9270    -4.5320    -1.9890 hc         1 H9B       0.036033
     51 C16         -4.2090    -4.6370    -0.9400 c3         1 H9B      -0.093100
     52 F28          6.6830    -1.1290     1.0510 f          1 H9B      -0.115000
@<TRIPOS>BOND
     1     1     2 ar  
     2     1     5 ar  
     3     1    17 1   
     4     2     3 ar  
     5     2    27 1   
     6     3     4 ar  
     7     3    28 1   
     8     4     7 1   
     9     4    16 ar  
    10     5    16 ar  
    11     5    29 1   
    12     6    25 1   
    13     6    30 1   
    14     6    31 1   
    15     6    51 1   
    16     7    10 ar  
    17     7    15 ar  
    18     8     9 ar  
    19     8    11 1   
    20     8    14 ar  
    21     9    10 ar  
    22     9    32 1   
    23    10    33 1   
    24    11    12 1   
    25    11    13 1   
    26    11    52 1   
    27    14    15 ar  
    28    14    34 1   
    29    15    35 1   
    30    16    36 1   
    31    17    18 1   
    32    17    19 1   
    33    17    37 1   
    34    18    19 1   
    35    18    38 1   
    36    18    39 1   
    37    19    20 1   
    38    19    22 1   
    39    20    21 1   
    40    20    40 1   
    41    20    41 1   
    42    21    42 1   
    43    21    43 1   
    44    22    23 1   
    45    22    44 1   
    46    23    24 2   
    47    23    25 1   
    48    25    26 1   
    49    25    45 1   
    50    26    46 1   
    51    26    47 1   
    52    48    51 1   
    53    49    51 1   
    54    50    51 1   
@<TRIPOS>SUBSTRUCTURE
     1 H9B         1 TEMP              0 ****  ****    0 ROOT
