@<TRIPOS>MOLECULE
H9D
   69    74     1     0     0
SMALL
No Charge or Current Charge


@<TRIPOS>ATOM
      1 N1         -45.7250    39.9080    24.2080 nb         1 H9D      -0.326000
      2 N2         -44.9460    38.3320    25.8780 nb         1 H9D      -0.214000
      3 C1         -44.5350    37.5200    24.8840 ca         1 H9D       0.124500
      4 C2         -44.6950    37.8410    23.5610 ca         1 H9D      -0.093600
      5 C3         -45.3090    39.0710    23.2460 ca         1 H9D       0.463900
      6 C4         -43.7660    35.9010    23.5640 cc         1 H9D       0.417700
      7 C5         -47.9640    35.6030    23.6010 c5         1 H9D       0.292300
      8 C6         -45.5240    39.4920    25.4840 ca         1 H9D       0.181900
      9 C7         -49.5200    35.4150    23.5170 c5         1 H9D       0.079300
     10 C8         -49.9790    36.3950    24.6260 c5         1 H9D       0.156300
     11 C9         -48.9150    36.0370    25.7130 c5         1 H9D       0.130300
     12 C10        -48.7830    37.0400    26.8980 c3         1 H9D       0.185600
     13 C11        -47.1470    31.4920    25.2240 ca         1 H9D       0.172900
     14 C12        -46.2980    34.4860    22.0610 cc         1 H9D       0.432700
     15 C13        -42.4510    30.1260    24.1800 c3         1 H9D       0.147800
     16 C14        -43.7150    29.5950    23.4310 c3         1 H9D       0.183800
     17 C15        -42.5950    32.4940    25.0420 c3         1 H9D       0.146800
     18 C16        -45.6040    31.3450    23.5320 ca         1 H9D       0.440900
     19 C17        -46.0310    32.6080    23.0760 ca         1 H9D      -0.105600
     20 C18        -47.0200    33.2550    23.7730 ca         1 H9D       0.121500
     21 C19        -43.9730    33.3260    27.1460 c5         1 H9D       0.143300
     22 C20        -44.8030    34.3030    26.2560 c5         1 H9D       0.142300
     23 C21        -42.6300    33.3660    26.3370 c5         1 H9D       0.125300
     24 C22        -43.7500    35.4320    26.0560 c5         1 H9D       0.279300
     25 N3         -45.5090    39.4850    21.9680 nv         1 H9D      -1.066900
     26 N4         -44.2050    36.8460    22.7100 nd         1 H9D      -0.563100
     27 N5         -43.9390    36.2920    24.8940 na         1 H9D      -0.294300
     28 N6         -46.1610    30.7830    24.6230 nb         1 H9D      -0.310000
     29 N7         -47.6110    32.7090    24.8550 nb         1 H9D      -0.220000
     30 N8         -45.5670    33.3570    21.9920 nd         1 H9D      -0.552100
     31 N10        -44.5860    30.6620    22.8780 nu         1 H9D      -0.913100
     32 N11        -47.1610    34.4680    23.1590 na         1 H9D      -0.292300
     33 O1         -50.0900    35.7640    22.2370 oh         1 H9D      -0.709000
     34 O2         -49.9030    37.7500    24.1540 oh         1 H9D      -0.688000
     35 O3         -47.6640    35.9100    24.9880 os         1 H9D      -0.442000
     36 O5         -43.7950    33.7960    28.5000 oh         1 H9D      -0.685000
     37 O6         -46.0410    34.7410    26.8420 oh         1 H9D      -0.673000
     38 O7         -42.4610    34.7690    25.9790 os         1 H9D      -0.444000
     39 H1         -43.3340    34.9450    23.2910 h5         1 H9D       0.073800
     40 H2         -47.6630    36.4590    22.9830 h2         1 H9D       0.086700
     41 H3         -45.8620    40.1610    26.2740 h5         1 H9D       0.046100
     42 H4         -49.7920    34.3860    23.7940 h1         1 H9D       0.075700
     43 H5         -50.9970    36.1620    24.9700 h1         1 H9D       0.058700
     44 H6         -49.1480    35.0520    26.1410 h1         1 H9D       0.058700
     45 H7         -47.9180    36.7650    27.5160 h1         1 H9D       0.040700
     46 H8         -49.6800    36.9490    27.5260 h1         1 H9D       0.040700
     47 H9         -47.6080    31.0400    26.1010 h5         1 H9D       0.051100
     48 H10        -46.2260    35.3370    21.3930 h5         1 H9D       0.071800
     49 H11        -41.9170    29.2460    24.5630 h1         1 H9D       0.058200
     50 H12        -41.7780    30.6060    23.4560 h1         1 H9D       0.058200
     51 H13        -43.3590    28.9620    22.6060 h1         1 H9D       0.067200
     52 H14        -44.2880    28.9390    24.1010 h1         1 H9D       0.067200
     53 H15        -41.6210    32.6700    24.5660 h1         1 H9D       0.041700
     54 H16        -43.3590    32.8390    24.3350 h1         1 H9D       0.041700
     55 H17        -44.4190    32.3210    27.1450 h1         1 H9D       0.064700
     56 H18        -45.0130    33.8310    25.2920 h1         1 H9D       0.044700
     57 H19        -41.7830    33.0570    26.9630 h1         1 H9D       0.091700
     58 H20        -43.7580    36.0870    26.9380 h2         1 H9D       0.123700
     59 H21        -45.6710    40.4760    21.8140 hn         1 H9D       0.507000
     60 H22        -44.9990    38.9900    21.2410 hn         1 H9D       0.507000
     61 H25        -44.2320    31.1820    22.0730 hn         1 H9D       0.513000
     62 H26        -49.9810    34.9860    21.6380 ho         1 H9D       0.522000
     63 H27        -50.1490    37.6740    23.1970 ho         1 H9D       0.517000
     64 H28        -49.0830    38.3560    25.5130 ho         1 H9D       0.536000
     65 H29        -43.4290    33.0470    29.0250 ho         1 H9D       0.505000
     66 H30        -46.5630    35.1790    26.1180 ho         1 H9D       0.524000
     67 N9         -42.7580    31.0430    25.3140 n7         1 H9D      -0.876400
     68 O4         -48.6570    38.3880    26.4190 oh         1 H9D      -0.717000
     69 H23        -43.7260    30.8590    25.6060 hn         1 H9D       0.425000
@<TRIPOS>BOND
     1     1     5 ar  
     2     1     8 ar  
     3     2     3 ar  
     4     2     8 ar  
     5     3     4 ar  
     6     3    27 1   
     7     4     5 ar  
     8     4    26 1   
     9     5    25 1   
    10     6    26 2   
    11     6    27 1   
    12     6    39 1   
    13     7     9 1   
    14     7    32 1   
    15     7    35 1   
    16     7    40 1   
    17     8    41 1   
    18     9    10 1   
    19     9    33 1   
    20     9    42 1   
    21    10    11 1   
    22    10    34 1   
    23    10    43 1   
    24    11    12 1   
    25    11    35 1   
    26    11    44 1   
    27    12    45 1   
    28    12    46 1   
    29    12    68 1   
    30    13    28 ar  
    31    13    29 ar  
    32    13    47 1   
    33    14    30 2   
    34    14    32 1   
    35    14    48 1   
    36    15    16 1   
    37    15    49 1   
    38    15    50 1   
    39    15    67 1   
    40    16    31 1   
    41    16    51 1   
    42    16    52 1   
    43    17    23 1   
    44    17    53 1   
    45    17    54 1   
    46    17    67 1   
    47    18    19 ar  
    48    18    28 ar  
    49    18    31 1   
    50    19    20 ar  
    51    19    30 1   
    52    20    29 ar  
    53    20    32 1   
    54    21    22 1   
    55    21    23 1   
    56    21    36 1   
    57    21    55 1   
    58    22    24 1   
    59    22    37 1   
    60    22    56 1   
    61    23    38 1   
    62    23    57 1   
    63    24    27 1   
    64    24    38 1   
    65    24    58 1   
    66    25    59 1   
    67    25    60 1   
    68    31    61 1   
    69    33    62 1   
    70    34    63 1   
    71    36    65 1   
    72    37    66 1   
    73    64    68 1   
    74    67    69 1   
@<TRIPOS>SUBSTRUCTURE
     1 H9D         1 TEMP              0 ****  ****    0 ROOT
