@<TRIPOS>MOLECULE
H9D
   69    74     1     0     0
SMALL
abcg2


@<TRIPOS>ATOM
      1 N1         -46.1100    39.0740    24.9120 nb         1 H9D      -0.326000
      2 N2         -44.9100    37.6480    26.4010 nb         1 H9D      -0.214000
      3 C1         -44.4290    37.0700    25.2980 ca         1 H9D       0.124500
      4 C2         -44.7070    37.4300    23.9900 ca         1 H9D      -0.093600
      5 C3         -45.6250    38.4800    23.8140 ca         1 H9D       0.463900
      6 C4         -43.4040    35.7750    23.8700 cc         1 H9D       0.417700
      7 C5         -48.2720    35.8300    23.3100 c5         1 H9D       0.292300
      8 C6         -45.7290    38.6390    26.1140 ca         1 H9D       0.181900
      9 C7         -49.6870    35.2540    23.4720 c5         1 H9D       0.079300
     10 C8         -50.3450    36.3630    24.2860 c5         1 H9D       0.156300
     11 C9         -49.2070    36.6930    25.2440 c5         1 H9D       0.130300
     12 C10        -49.2110    38.0550    25.9250 c3         1 H9D       0.185600
     13 C11        -46.8820    32.1650    25.3150 ca         1 H9D       0.172900
     14 C12        -46.5110    34.7790    21.8940 cc         1 H9D       0.432700
     15 C13        -42.6210    30.0760    23.9190 c3         1 H9D       0.147800
     16 C14        -44.0000    29.8840    23.2870 c3         1 H9D       0.183800
     17 C15        -42.4810    32.3160    24.9160 c3         1 H9D       0.146800
     18 C16        -45.5200    31.8270    23.4900 ca         1 H9D       0.440900
     19 C17        -46.0120    33.0450    22.9790 ca         1 H9D      -0.105600
     20 C18        -46.9470    33.7140    23.7540 ca         1 H9D       0.121500
     21 C19        -43.3960    32.9990    27.2270 c5         1 H9D       0.143300
     22 C20        -44.2500    34.1490    26.7200 c5         1 H9D       0.142300
     23 C21        -42.2350    33.0470    26.2310 c5         1 H9D       0.125300
     24 C22        -43.1710    35.1770    26.3290 c5         1 H9D       0.279300
     25 N3         -46.0340    38.8900    22.6140 nv         1 H9D      -1.066900
     26 N4         -44.0480    36.6140    23.1120 nd         1 H9D      -0.563100
     27 N5         -43.5870    36.0030    25.2070 na         1 H9D      -0.294300
     28 N6         -45.9800    31.4210    24.6790 nb         1 H9D      -0.310000
     29 N7         -47.4160    33.3150    24.9370 nb         1 H9D      -0.220000
     30 N8         -45.7550    33.7260    21.8190 nd         1 H9D      -0.552100
     31 N10        -44.6240    31.1000    22.8160 nu         1 H9D      -0.913100
     32 N11        -47.2660    34.8350    23.0350 na         1 H9D      -0.292300
     33 O1         -50.3510    35.0220    22.2700 oh         1 H9D      -0.709000
     34 O2         -50.6730    37.4650    23.4830 oh         1 H9D      -0.688000
     35 O3         -47.9960    36.5000    24.5040 os         1 H9D      -0.442000
     36 O5         -42.9830    33.3110    28.5320 oh         1 H9D      -0.685000
     37 O6         -45.1750    34.5920    27.6600 oh         1 H9D      -0.673000
     38 O7         -42.0410    34.4460    25.9720 os         1 H9D      -0.444000
     39 H1         -42.7680    34.9820    23.5100 h5         1 H9D       0.073800
     40 H2         -48.2480    36.5170    22.4550 h2         1 H9D       0.086700
     41 H3         -46.1580    39.1690    26.9570 h5         1 H9D       0.046100
     42 H4         -49.6410    34.3520    24.0950 h1         1 H9D       0.075700
     43 H5         -51.2150    35.9950    24.8450 h1         1 H9D       0.058700
     44 H6         -49.2510    35.9490    26.0520 h1         1 H9D       0.058700
     45 H7         -48.4860    38.0130    26.7500 h1         1 H9D       0.040700
     46 H8         -50.1900    38.1740    26.3980 h1         1 H9D       0.040700
     47 H9         -47.2160    31.7760    26.2710 h5         1 H9D       0.051100
     48 H10        -46.5740    35.5620    21.1520 h5         1 H9D       0.071800
     49 H11        -42.2420    29.0750    24.1480 h1         1 H9D       0.058200
     50 H12        -41.9320    30.5010    23.1850 h1         1 H9D       0.058200
     51 H13        -43.9030    29.2030    22.4380 h1         1 H9D       0.067200
     52 H14        -44.6710    29.4070    24.0000 h1         1 H9D       0.067200
     53 H15        -41.6240    32.5100    24.2640 h1         1 H9D       0.041700
     54 H16        -43.3480    32.7580    24.4090 h1         1 H9D       0.041700
     55 H17        -43.9450    32.0500    27.1940 h1         1 H9D       0.064700
     56 H18        -44.7450    33.8180    25.8000 h1         1 H9D       0.044700
     57 H19        -41.3190    32.6570    26.6830 h1         1 H9D       0.091700
     58 H20        -42.9610    35.8560    27.1630 h2         1 H9D       0.123700
     59 H21        -46.6560    39.6760    22.5280 hn         1 H9D       0.507000
     60 H22        -45.6530    38.4910    21.7740 hn         1 H9D       0.507000
     61 H25        -44.2820    31.4930    21.9530 hn         1 H9D       0.513000
     62 H26        -50.0340    34.1980    21.8850 ho         1 H9D       0.522000
     63 H27        -51.2940    37.1670    22.8100 ho         1 H9D       0.517000
     64 H28        -48.0220    39.2270    24.9420 ho         1 H9D       0.536000
     65 H29        -42.3980    32.6110    28.8410 ho         1 H9D       0.505000
     66 H30        -45.8640    35.0890    27.2080 ho         1 H9D       0.524000
     67 N9         -42.5710    30.8860    25.1220 n7         1 H9D      -0.876400
     68 O4         -48.9800    39.1600    25.1010 oh         1 H9D      -0.717000
     69 H23        -43.3630    30.6580    25.7090 hn         1 H9D       0.425000
@<TRIPOS>BOND
     1     1     5 ar  
     2     1     8 ar  
     3     2     3 ar  
     4     2     8 ar  
     5     3     4 ar  
     6     3    27 1   
     7     4     5 ar  
     8     4    26 1   
     9     5    25 1   
    10     6    26 2   
    11     6    27 1   
    12     6    39 1   
    13     7     9 1   
    14     7    32 1   
    15     7    35 1   
    16     7    40 1   
    17     8    41 1   
    18     9    10 1   
    19     9    33 1   
    20     9    42 1   
    21    10    11 1   
    22    10    34 1   
    23    10    43 1   
    24    11    12 1   
    25    11    35 1   
    26    11    44 1   
    27    12    45 1   
    28    12    46 1   
    29    12    68 1   
    30    13    28 ar  
    31    13    29 ar  
    32    13    47 1   
    33    14    30 2   
    34    14    32 1   
    35    14    48 1   
    36    15    16 1   
    37    15    49 1   
    38    15    50 1   
    39    15    67 1   
    40    16    31 1   
    41    16    51 1   
    42    16    52 1   
    43    17    23 1   
    44    17    53 1   
    45    17    54 1   
    46    17    67 1   
    47    18    19 ar  
    48    18    28 ar  
    49    18    31 1   
    50    19    20 ar  
    51    19    30 1   
    52    20    29 ar  
    53    20    32 1   
    54    21    22 1   
    55    21    23 1   
    56    21    36 1   
    57    21    55 1   
    58    22    24 1   
    59    22    37 1   
    60    22    56 1   
    61    23    38 1   
    62    23    57 1   
    63    24    27 1   
    64    24    38 1   
    65    24    58 1   
    66    25    59 1   
    67    25    60 1   
    68    31    61 1   
    69    33    62 1   
    70    34    63 1   
    71    36    65 1   
    72    37    66 1   
    73    64    68 1   
    74    67    69 1   
@<TRIPOS>SUBSTRUCTURE
     1 H9D         1 TEMP              0 ****  ****    0 ROOT
