@<TRIPOS>MOLECULE
H9F
   76    79     1     0     0
SMALL
No Charge or Current Charge


@<TRIPOS>ATOM
      1 N1          -1.6060   -34.7800   -25.1780 nb         1 H9F      -0.321000
      2 N3          -6.5050   -34.5300   -24.1740 nb         1 H9F      -0.321000
      3 C4          -4.1930   -33.9600   -24.5940 ca         1 H9F      -0.063500
      4 C5          -5.5400   -33.6020   -24.2920 ca         1 H9F       0.429400
      5 C6          -6.1510   -35.8160   -24.3210 ca         1 H9F       0.416900
      6 C7          -1.2330   -31.0560   -25.1460 c3         1 H9F       0.242550
      7 C8          -1.3140   -30.4160   -23.7280 c3         1 H9F       0.136350
      8 C10          1.2170   -33.4900   -24.1430 c3         1 H9F       0.136350
      9 C13         -6.8650   -38.2590   -24.3390 c3         1 H9F       0.242550
     10 C15         -0.8050   -37.5160   -24.7710 c6         1 H9F       0.218050
     11 C17         -0.4690   -38.6380   -27.0400 c6         1 H9F      -0.073400
     12 C20         -5.2960   -31.3420   -23.1660 c6         1 H9F       0.218050
     13 C21         -5.1080   -29.9320   -23.7910 c6         1 H9F      -0.098650
     14 C22         -6.3470   -29.4450   -24.5970 c6         1 H9F      -0.073400
     15 C24         -7.3210   -31.8110   -24.5990 c6         1 H9F       0.218050
     16 C1          -3.9150   -35.3430   -24.7450 ca         1 H9F      -0.063500
     17 C2          -2.5710   -35.7050   -25.0450 ca         1 H9F       0.429400
     18 C3          -1.9580   -33.4950   -25.0300 ca         1 H9F       0.416900
     19 N2          -3.2010   -33.0520   -24.7540 nb         1 H9F      -0.276500
     20 N4          -4.9060   -36.2530   -24.5940 nb         1 H9F      -0.276500
     21 N5          -0.9330   -32.5220   -25.1810 nh         1 H9F      -0.786800
     22 O1          -0.0170   -30.3120   -23.1080 oh         1 H9F      -0.661250
     23 C9           0.4950   -32.9120   -25.3930 c3         1 H9F       0.242550
     24 O2           2.5830   -33.8300   -24.4450 oh         1 H9F      -0.661250
     25 N6          -7.1690   -36.8030   -24.1950 nh         1 H9F      -0.786800
     26 C11         -8.5970   -36.4510   -23.9030 c3         1 H9F       0.242550
     27 C12         -9.0790   -36.7210   -22.4440 c3         1 H9F       0.136350
     28 O3          -8.3820   -35.9110   -21.4770 oh         1 H9F      -0.661250
     29 C14         -6.1530   -38.9070   -23.1170 c3         1 H9F       0.136350
     30 O4          -5.9650   -40.3190   -23.3180 oh         1 H9F      -0.661250
     31 N7          -2.1500   -37.0500   -25.2170 nh         1 H9F      -0.757300
     32 N8          -5.9730   -32.2590   -24.1230 nh         1 H9F      -0.757300
     33 C16          0.1500   -37.6990   -25.9770 c6         1 H9F      -0.098650
     34 C18         -1.8670   -38.1230   -27.4610 c6         1 H9F      -0.098650
     35 C19         -2.7940   -37.9270   -26.2350 c6         1 H9F       0.218050
     36 C23         -7.5960   -30.3100   -24.3040 c6         1 H9F      -0.098650
     37 H1          -0.4840   -30.5020   -25.7280 h1         1 H9F       0.060950
     38 H2          -2.1860   -30.8650   -25.6590 h1         1 H9F       0.060950
     39 H3          -1.7550   -29.4160   -23.8280 h1         1 H9F       0.028075
     40 H4          -1.9910   -31.0110   -23.1030 h1         1 H9F       0.028075
     41 H5           0.6800   -34.3800   -23.7910 h1         1 H9F       0.028075
     42 H6           1.1850   -32.7460   -23.3370 h1         1 H9F       0.028075
     43 H7          -7.7970   -38.8140   -24.5140 h1         1 H9F       0.060950
     44 H8          -6.2480   -38.4240   -25.2330 h1         1 H9F       0.060950
     45 H9          -0.9040   -38.4760   -24.2410 h1         1 H9F       0.061575
     46 H10         -0.3590   -36.8130   -24.0520 h1         1 H9F       0.061575
     47 H11         -0.5550   -39.6550   -26.6330 hc         1 H9F       0.041200
     48 H12          0.1900   -38.7020   -27.9170 hc         1 H9F       0.041200
     49 H13         -4.3220   -31.7330   -22.8400 h1         1 H9F       0.061575
     50 H14         -5.9080   -31.2520   -22.2550 h1         1 H9F       0.061575
     51 H15         -4.2360   -29.9450   -24.4570 hc         1 H9F       0.047825
     52 H16         -4.8720   -29.2160   -22.9920 hc         1 H9F       0.047825
     53 H17         -6.1230   -29.4920   -25.6720 hc         1 H9F       0.041200
     54 H18         -6.5530   -28.3900   -24.3710 hc         1 H9F       0.041200
     55 H19         -8.1200   -32.4110   -24.1380 h1         1 H9F       0.061575
     56 H20         -7.3850   -31.9660   -25.6870 h1         1 H9F       0.061575
     57 H21         -0.1570   -29.9360   -22.2110 ho         1 H9F       0.440500
     58 H22          1.0720   -32.0420   -25.7350 h1         1 H9F       0.060950
     59 H23          0.5570   -33.6500   -26.2050 h1         1 H9F       0.060950
     60 H24          2.9880   -34.1610   -23.6130 ho         1 H9F       0.440500
     61 H25         -8.8120   -35.4020   -24.1450 h1         1 H9F       0.060950
     62 H26         -9.2460   -37.0300   -24.5740 h1         1 H9F       0.060950
     63 H27        -10.1560   -36.5140   -22.3950 h1         1 H9F       0.028075
     64 H28         -8.9430   -37.7860   -22.2170 h1         1 H9F       0.028075
     65 H29         -8.7170   -36.1700   -20.5900 ho         1 H9F       0.440500
     66 H30         -5.1830   -38.4160   -22.9600 h1         1 H9F       0.028075
     67 H31         -6.7600   -38.7330   -22.2180 h1         1 H9F       0.028075
     68 H32         -5.5040   -40.6640   -22.5200 ho         1 H9F       0.440500
     69 H33          1.1110   -38.1020   -25.6320 hc         1 H9F       0.047825
     70 H34          0.3640   -36.7200   -26.4270 hc         1 H9F       0.047825
     71 H35         -1.7620   -37.1670   -27.9930 hc         1 H9F       0.047825
     72 H36         -2.3290   -38.8250   -28.1670 hc         1 H9F       0.047825
     73 H37         -3.7450   -37.4990   -26.5830 h1         1 H9F       0.061575
     74 H38         -3.0310   -38.9050   -25.7900 h1         1 H9F       0.061575
     75 H39         -7.8910   -30.1880   -23.2520 hc         1 H9F       0.047825
     76 H40         -8.4490   -29.9650   -24.9040 hc         1 H9F       0.047825
@<TRIPOS>BOND
     1     1    17 ar  
     2     1    18 ar  
     3     2     4 ar  
     4     2     5 ar  
     5     3     4 ar  
     6     3    16 ar  
     7     3    19 ar  
     8     4    32 1   
     9     5    20 ar  
    10     5    25 1   
    11     6     7 1   
    12     6    21 1   
    13     6    37 1   
    14     6    38 1   
    15     7    22 1   
    16     7    39 1   
    17     7    40 1   
    18     8    23 1   
    19     8    24 1   
    20     8    41 1   
    21     8    42 1   
    22     9    25 1   
    23     9    29 1   
    24     9    43 1   
    25     9    44 1   
    26    10    31 1   
    27    10    33 1   
    28    10    45 1   
    29    10    46 1   
    30    11    33 1   
    31    11    34 1   
    32    11    47 1   
    33    11    48 1   
    34    12    13 1   
    35    12    32 1   
    36    12    49 1   
    37    12    50 1   
    38    13    14 1   
    39    13    51 1   
    40    13    52 1   
    41    14    36 1   
    42    14    53 1   
    43    14    54 1   
    44    15    32 1   
    45    15    36 1   
    46    15    55 1   
    47    15    56 1   
    48    16    17 ar  
    49    16    20 ar  
    50    17    31 1   
    51    18    19 ar  
    52    18    21 1   
    53    21    23 1   
    54    22    57 1   
    55    23    58 1   
    56    23    59 1   
    57    24    60 1   
    58    25    26 1   
    59    26    27 1   
    60    26    61 1   
    61    26    62 1   
    62    27    28 1   
    63    27    63 1   
    64    27    64 1   
    65    28    65 1   
    66    29    30 1   
    67    29    66 1   
    68    29    67 1   
    69    30    68 1   
    70    31    35 1   
    71    33    69 1   
    72    33    70 1   
    73    34    35 1   
    74    34    71 1   
    75    34    72 1   
    76    35    73 1   
    77    35    74 1   
    78    36    75 1   
    79    36    76 1   
@<TRIPOS>SUBSTRUCTURE
     1 H9F         1 TEMP              0 ****  ****    0 ROOT
