@<TRIPOS>MOLECULE
H9F
   76    79     1     0     0
SMALL
abcg2


@<TRIPOS>ATOM
      1 N1          -1.5530   -34.7640   -24.8780 nb         1 H9F      -0.321000
      2 N3          -6.3860   -34.4830   -24.1220 nb         1 H9F      -0.321000
      3 C4          -4.0760   -33.9300   -24.4410 ca         1 H9F      -0.063500
      4 C5          -5.4580   -33.5490   -24.1870 ca         1 H9F       0.429400
      5 C6          -6.0540   -35.7750   -24.2720 ca         1 H9F       0.416900
      6 C7          -1.1240   -31.1630   -24.6740 c3         1 H9F       0.242550
      7 C8          -1.2120   -30.5930   -23.2710 c3         1 H9F       0.136350
      8 C10          1.1530   -33.6250   -23.7000 c3         1 H9F       0.136350
      9 C13         -6.7820   -38.0890   -24.3980 c3         1 H9F       0.242550
     10 C15         -0.6890   -37.2830   -25.0810 c6         1 H9F       0.218050
     11 C17         -0.9080   -38.1970   -27.3980 c6         1 H9F      -0.073400
     12 C20         -5.0940   -31.1120   -23.6980 c6         1 H9F       0.218050
     13 C21         -5.1470   -30.0630   -24.8050 c6         1 H9F      -0.098650
     14 C22         -6.5420   -30.0340   -25.4470 c6         1 H9F      -0.073400
     15 C24         -7.3220   -32.0110   -24.1180 c6         1 H9F       0.218050
     16 C1          -3.8690   -35.2980   -24.6150 ca         1 H9F      -0.063500
     17 C2          -2.4950   -35.6810   -24.8810 ca         1 H9F       0.429400
     18 C3          -1.8740   -33.4730   -24.6970 ca         1 H9F       0.416900
     19 N2          -3.0910   -33.0140   -24.5080 nb         1 H9F      -0.276500
     20 N4          -4.8420   -36.2250   -24.5040 nb         1 H9F      -0.276500
     21 N5          -0.8420   -32.5810   -24.7480 nh         1 H9F      -0.786800
     22 O1           0.0730   -30.5570   -22.6930 oh         1 H9F      -0.661250
     23 C9           0.5160   -33.0400   -24.9530 c3         1 H9F       0.242550
     24 O2           2.4450   -34.0740   -24.0550 oh         1 H9F      -0.661250
     25 N6          -7.0650   -36.6870   -24.1880 nh         1 H9F      -0.786800
     26 C11         -8.4250   -36.3100   -23.8690 c3         1 H9F       0.242550
     27 C12         -8.8790   -36.7490   -22.4900 c3         1 H9F       0.136350
     28 O3          -8.0350   -36.1800   -21.5180 oh         1 H9F      -0.661250
     29 C14         -6.1410   -38.7800   -23.2000 c3         1 H9F       0.136350
     30 O4          -5.8770   -40.1130   -23.5800 oh         1 H9F      -0.661250
     31 N7          -2.1130   -36.9740   -25.0530 nh         1 H9F      -0.757300
     32 N8          -5.8860   -32.2760   -24.0660 nh         1 H9F      -0.757300
     33 C16         -0.1240   -37.2480   -26.4960 c6         1 H9F      -0.098650
     34 C18         -2.4050   -37.9240   -27.2990 c6         1 H9F      -0.098650
     35 C19         -2.8800   -37.9310   -25.8480 c6         1 H9F       0.218050
     36 C23         -7.5800   -30.5400   -24.4520 c6         1 H9F      -0.098650
     37 H1          -0.3490   -30.6300   -25.2290 h1         1 H9F       0.060950
     38 H2          -2.0680   -30.9570   -25.1790 h1         1 H9F       0.060950
     39 H3          -1.6460   -29.5860   -23.3440 h1         1 H9F       0.028075
     40 H4          -1.9060   -31.1990   -22.6770 h1         1 H9F       0.028075
     41 H5           0.5310   -34.4460   -23.3260 h1         1 H9F       0.028075
     42 H6           1.1870   -32.8550   -22.9220 h1         1 H9F       0.028075
     43 H7          -7.7250   -38.5840   -24.6380 h1         1 H9F       0.060950
     44 H8          -6.1280   -38.2080   -25.2650 h1         1 H9F       0.060950
     45 H9          -0.5780   -38.2940   -24.6750 h1         1 H9F       0.061575
     46 H10         -0.1520   -36.6060   -24.4210 h1         1 H9F       0.061575
     47 H11         -0.7140   -39.2290   -27.0860 hc         1 H9F       0.041200
     48 H12         -0.5690   -38.1130   -28.4320 hc         1 H9F       0.041200
     49 H13         -4.0750   -31.4020   -23.4810 h1         1 H9F       0.061575
     50 H14         -5.5190   -30.7050   -22.7750 h1         1 H9F       0.061575
     51 H15         -4.3850   -30.2760   -25.5580 hc         1 H9F       0.047825
     52 H16         -4.9000   -29.0910   -24.3720 hc         1 H9F       0.047825
     53 H17         -6.5610   -30.6730   -26.3340 hc         1 H9F       0.041200
     54 H18         -6.7900   -29.0280   -25.7880 hc         1 H9F       0.041200
     55 H19         -7.8080   -32.2900   -23.1770 h1         1 H9F       0.061575
     56 H20         -7.7580   -32.6390   -24.8940 h1         1 H9F       0.061575
     57 H21         -0.0180   -30.3330   -21.7620 ho         1 H9F       0.440500
     58 H22          1.1060   -32.1870   -25.2910 h1         1 H9F       0.060950
     59 H23          0.5440   -33.7860   -25.7500 h1         1 H9F       0.060950
     60 H24          2.8660   -34.4270   -23.2660 ho         1 H9F       0.440500
     61 H25         -8.5180   -35.2310   -23.9620 h1         1 H9F       0.060950
     62 H26         -9.1040   -36.7560   -24.6020 h1         1 H9F       0.060950
     63 H27         -9.9230   -36.4300   -22.3680 h1         1 H9F       0.028075
     64 H28         -8.8810   -37.8460   -22.4320 h1         1 H9F       0.028075
     65 H29         -8.2930   -36.5210   -20.6580 ho         1 H9F       0.440500
     66 H30         -5.2240   -38.2480   -22.9240 h1         1 H9F       0.028075
     67 H31         -6.8160   -38.7330   -22.3370 h1         1 H9F       0.028075
     68 H32         -5.4490   -40.5570   -22.8430 ho         1 H9F       0.440500
     69 H33          0.9320   -37.5260   -26.4710 hc         1 H9F       0.047825
     70 H34         -0.1770   -36.2260   -26.8810 hc         1 H9F       0.047825
     71 H35         -2.6420   -36.9530   -27.7460 hc         1 H9F       0.047825
     72 H36         -2.9700   -38.6740   -27.8590 hc         1 H9F       0.047825
     73 H37         -3.9380   -37.7110   -25.7750 h1         1 H9F       0.061575
     74 H38         -2.7230   -38.9240   -25.4150 h1         1 H9F       0.061575
     75 H39         -7.5580   -29.9240   -23.5490 hc         1 H9F       0.047825
     76 H40         -8.5890   -30.4540   -24.8560 hc         1 H9F       0.047825
@<TRIPOS>BOND
     1     1    17 ar  
     2     1    18 ar  
     3     2     4 ar  
     4     2     5 ar  
     5     3     4 ar  
     6     3    16 ar  
     7     3    19 ar  
     8     4    32 1   
     9     5    20 ar  
    10     5    25 1   
    11     6     7 1   
    12     6    21 1   
    13     6    37 1   
    14     6    38 1   
    15     7    22 1   
    16     7    39 1   
    17     7    40 1   
    18     8    23 1   
    19     8    24 1   
    20     8    41 1   
    21     8    42 1   
    22     9    25 1   
    23     9    29 1   
    24     9    43 1   
    25     9    44 1   
    26    10    31 1   
    27    10    33 1   
    28    10    45 1   
    29    10    46 1   
    30    11    33 1   
    31    11    34 1   
    32    11    47 1   
    33    11    48 1   
    34    12    13 1   
    35    12    32 1   
    36    12    49 1   
    37    12    50 1   
    38    13    14 1   
    39    13    51 1   
    40    13    52 1   
    41    14    36 1   
    42    14    53 1   
    43    14    54 1   
    44    15    32 1   
    45    15    36 1   
    46    15    55 1   
    47    15    56 1   
    48    16    17 ar  
    49    16    20 ar  
    50    17    31 1   
    51    18    19 ar  
    52    18    21 1   
    53    21    23 1   
    54    22    57 1   
    55    23    58 1   
    56    23    59 1   
    57    24    60 1   
    58    25    26 1   
    59    26    27 1   
    60    26    61 1   
    61    26    62 1   
    62    27    28 1   
    63    27    63 1   
    64    27    64 1   
    65    28    65 1   
    66    29    30 1   
    67    29    66 1   
    68    29    67 1   
    69    30    68 1   
    70    31    35 1   
    71    33    69 1   
    72    33    70 1   
    73    34    35 1   
    74    34    71 1   
    75    34    72 1   
    76    35    73 1   
    77    35    74 1   
    78    36    75 1   
    79    36    76 1   
@<TRIPOS>SUBSTRUCTURE
     1 H9F         1 TEMP              0 ****  ****    0 ROOT
