@<TRIPOS>MOLECULE
H9G
   44    48     1     0     0
SMALL
No Charge or Current Charge


@<TRIPOS>ATOM
      1 C14         -1.4000     1.6110    -1.4180 ca         1 H9G       0.097100
      2 C15         -2.2460     2.1350    -2.4060 ca         1 H9G      -0.090000
      3 C11          3.8080    -1.7230     0.3860 ca         1 H9G       0.467900
      4 N10          3.7530    -3.0120     0.0450 nb         1 H9G      -0.360000
      5 C6           2.8810     0.5870     0.2800 ca         1 H9G       0.220100
      6 C5           2.8670    -0.7790    -0.0650 ca         1 H9G      -0.272000
      7 C4           1.8430    -1.2530    -0.9200 ca         1 H9G       0.165000
      8 C2           0.9010     1.0010    -1.0300 ca         1 H9G       0.229100
      9 O1          -0.0510     1.8800    -1.4890 os         1 H9G      -0.249200
     10 C3           0.8710    -0.3540    -1.4020 ca         1 H9G      -0.247000
     11 C7           1.9210     1.4520    -0.1870 ca         1 H9G      -0.251300
     12 N8           1.7950    -2.5540    -1.2670 nb         1 H9G      -0.308000
     13 C9           2.7480    -3.3470    -0.7640 ca         1 H9G       0.434900
     14 N13          2.6850    -4.6480    -1.1140 nv         1 H9G      -1.053900
     15 C16         -3.6260     1.8860    -2.3510 ca         1 H9G      -0.101000
     16 C17         -4.1650     1.1200    -1.3030 ca         1 H9G      -0.098000
     17 C18         -3.3280     0.5950    -0.2910 ca         1 H9G      -0.133500
     18 C19         -1.9390     0.8530    -0.3580 ca         1 H9G      -0.069000
     19 C20         -3.8780    -0.2010     0.8170 cc         1 H9G       0.457000
     20 N21         -5.1900    -0.5270     1.0060 na         1 H9G      -0.210700
     21 N22         -5.3390    -1.2710     2.1310 nc         1 H9G      -0.203800
     22 N23         -4.1280    -1.3870     2.6060 nd         1 H9G      -0.039000
     23 N24         -3.2070    -0.7380     1.8170 nd         1 H9G      -0.384000
     24 O25          3.7810     1.1850     1.1230 os         1 H9G      -0.355100
     25 C26          3.5720     2.6230     0.9300 c5         1 H9G       0.148600
     26 C27          2.1160     2.8300     0.3700 c5         1 H9G      -0.011400
     27 C28          1.0670     3.1980     1.4430 c3         1 H9G      -0.085100
     28 H1          -1.8300     2.7290    -3.2160 ha         1 H9G       0.137000
     29 H2           0.0880    -0.7130    -2.0620 ha         1 H9G       0.143000
     30 H3           4.8250    -0.4890     1.6210 hn         1 H9G       0.508500
     31 H4           5.2860    -2.1610     1.7230 hn         1 H9G       0.508500
     32 H5           1.8200    -4.9900    -1.5230 hn         1 H9G       0.489500
     33 H6           3.2330    -5.3160    -0.5780 hn         1 H9G       0.489500
     34 H7          -4.2810     2.2890    -3.1210 ha         1 H9G       0.124000
     35 H8          -5.2380     0.9440    -1.2850 ha         1 H9G       0.109000
     36 H9          -1.2780     0.4700     0.4160 ha         1 H9G       0.158000
     37 H10         -5.9710    -0.2710     0.4170 hn         1 H9G       0.387000
     38 H11          3.7520     3.1580     1.8710 h1         1 H9G       0.060200
     39 H12          4.3110     2.9730     0.1960 h1         1 H9G       0.060200
     40 H13          2.0930     3.6050    -0.4050 hc         1 H9G       0.072700
     41 H14          1.0420     2.4520     2.2460 hc         1 H9G       0.041700
     42 H15          1.2920     4.1710     1.8940 hc         1 H9G       0.041700
     43 H16          0.0620     3.2560     1.0090 hc         1 H9G       0.041700
     44 N12          4.8460    -1.4130     1.1950 nv         1 H9G      -1.071900
@<TRIPOS>BOND
     1     1     2 ar  
     2     1     9 1   
     3     1    18 ar  
     4     2    15 ar  
     5     2    28 1   
     6     3     4 ar  
     7     3     6 ar  
     8     3    44 1   
     9     4    13 ar  
    10     5     6 ar  
    11     5    11 ar  
    12     5    24 1   
    13     6     7 ar  
    14     7    10 ar  
    15     7    12 ar  
    16     8     9 1   
    17     8    10 ar  
    18     8    11 ar  
    19    10    29 1   
    20    11    26 1   
    21    12    13 ar  
    22    13    14 1   
    23    14    32 1   
    24    14    33 1   
    25    15    16 ar  
    26    15    34 1   
    27    16    17 ar  
    28    16    35 1   
    29    17    18 ar  
    30    17    19 1   
    31    18    36 1   
    32    19    20 1   
    33    19    23 2   
    34    20    21 1   
    35    20    37 1   
    36    21    22 2   
    37    22    23 1   
    38    24    25 1   
    39    25    26 1   
    40    25    38 1   
    41    25    39 1   
    42    26    27 1   
    43    26    40 1   
    44    27    41 1   
    45    27    42 1   
    46    27    43 1   
    47    30    44 1   
    48    31    44 1   
@<TRIPOS>SUBSTRUCTURE
     1 H9G         1 TEMP              0 ****  ****    0 ROOT
