@<TRIPOS>MOLECULE
H9G
   44    48     1     0     0
SMALL
abcg2


@<TRIPOS>ATOM
      1 C14         -1.5250     1.5090    -0.9460 ca         1 H9G       0.097100
      2 C15         -1.9670     1.6640    -2.2500 ca         1 H9G      -0.090000
      3 C11          3.9930    -1.6380     0.0250 ca         1 H9G       0.467900
      4 N10          3.8110    -2.8970    -0.3230 nb         1 H9G      -0.360000
      5 C6           2.9910     0.6870     0.2050 ca         1 H9G       0.220100
      6 C5           2.9370    -0.6760    -0.1200 ca         1 H9G      -0.272000
      7 C4           1.7140    -1.1650    -0.6460 ca         1 H9G       0.165000
      8 C2           0.7330     1.0400    -0.4760 ca         1 H9G       0.229100
      9 O1          -0.2700     1.9450    -0.6090 os         1 H9G      -0.249200
     10 C3           0.6200    -0.2920    -0.8220 ca         1 H9G      -0.247000
     11 C7           1.9310     1.5410     0.0350 ca         1 H9G      -0.251300
     12 N8           1.5630    -2.4610    -0.9950 nb         1 H9G      -0.308000
     13 C9           2.6090    -3.2450    -0.8190 ca         1 H9G       0.434900
     14 N13          2.4950    -4.5370    -1.2030 nv         1 H9G      -1.053900
     15 C16         -3.2540     1.2630    -2.5770 ca         1 H9G      -0.101000
     16 C17         -4.0830     0.7030    -1.6190 ca         1 H9G      -0.098000
     17 C18         -3.6260     0.5490    -0.3110 ca         1 H9G      -0.133500
     18 C19         -2.3390     0.9580     0.0280 ca         1 H9G      -0.069000
     19 C20         -4.4680    -0.0310     0.7270 cc         1 H9G       0.457000
     20 N21         -5.6600    -0.6090     0.5610 na         1 H9G      -0.210700
     21 N22         -6.1120    -1.0170     1.7330 nc         1 H9G      -0.203800
     22 N23         -5.2250    -0.6980     2.5910 nd         1 H9G      -0.039000
     23 N24         -4.1950    -0.0880     2.0120 nd         1 H9G      -0.384000
     24 O25          4.0700     1.2950     0.7270 os         1 H9G      -0.355100
     25 C26          3.8170     2.7170     0.7170 c5         1 H9G       0.148600
     26 C27          2.2950     2.8920     0.5840 c5         1 H9G      -0.011400
     27 C28          1.6040     3.1880     1.9140 c3         1 H9G      -0.085100
     28 H1          -1.3160     2.0990    -2.9980 ha         1 H9G       0.137000
     29 H2          -0.2930    -0.7030    -1.2300 ha         1 H9G       0.143000
     30 H3           5.4110    -0.3650     0.7980 hn         1 H9G       0.508500
     31 H4           5.8970    -2.0100     0.6010 hn         1 H9G       0.508500
     32 H5           1.5730    -4.8980    -1.3770 hn         1 H9G       0.489500
     33 H6           3.1780    -5.1940    -0.8690 hn         1 H9G       0.489500
     34 H7          -3.6120     1.3830    -3.5910 ha         1 H9G       0.124000
     35 H8          -5.0820     0.3990    -1.9020 ha         1 H9G       0.109000
     36 H9          -1.9760     0.8470     1.0420 ha         1 H9G       0.158000
     37 H10         -6.2010    -0.7730    -0.2770 hn         1 H9G       0.387000
     38 H11          4.2260     3.1380     1.6350 h1         1 H9G       0.060200
     39 H12          4.3460     3.1470    -0.1360 h1         1 H9G       0.060200
     40 H13          2.0820     3.6970    -0.1230 hc         1 H9G       0.072700
     41 H14          1.8180     2.4100     2.6490 hc         1 H9G       0.041700
     42 H15          1.9410     4.1410     2.3210 hc         1 H9G       0.041700
     43 H16          0.5230     3.2430     1.7900 hc         1 H9G       0.041700
     44 N12          5.1890    -1.3020     0.5120 nv         1 H9G      -1.071900
@<TRIPOS>BOND
     1     1     2 ar  
     2     1     9 1   
     3     1    18 ar  
     4     2    15 ar  
     5     2    28 1   
     6     3     4 ar  
     7     3     6 ar  
     8     3    44 1   
     9     4    13 ar  
    10     5     6 ar  
    11     5    11 ar  
    12     5    24 1   
    13     6     7 ar  
    14     7    10 ar  
    15     7    12 ar  
    16     8     9 1   
    17     8    10 ar  
    18     8    11 ar  
    19    10    29 1   
    20    11    26 1   
    21    12    13 ar  
    22    13    14 1   
    23    14    32 1   
    24    14    33 1   
    25    15    16 ar  
    26    15    34 1   
    27    16    17 ar  
    28    16    35 1   
    29    17    18 ar  
    30    17    19 1   
    31    18    36 1   
    32    19    20 1   
    33    19    23 2   
    34    20    21 1   
    35    20    37 1   
    36    21    22 2   
    37    22    23 1   
    38    24    25 1   
    39    25    26 1   
    40    25    38 1   
    41    25    39 1   
    42    26    27 1   
    43    26    40 1   
    44    27    41 1   
    45    27    42 1   
    46    27    43 1   
    47    30    44 1   
    48    31    44 1   
@<TRIPOS>SUBSTRUCTURE
     1 H9G         1 TEMP              0 ****  ****    0 ROOT
