@<TRIPOS>MOLECULE
H9I
   54    56     1     0     0
SMALL
No Charge or Current Charge


@<TRIPOS>ATOM
      1 C10          8.6600     3.9760    15.0780 ca         1 H9I      -0.119900
      2 C12          8.0280     2.4590    13.2720 c3         1 H9I       0.163600
      3 C13          7.9560     0.9360    13.0340 cy         1 H9I      -0.114000
      4 C14          6.9900     0.3000    14.0590 c3         1 H9I       0.182600
      5 C20          2.2210     0.7960    15.1200 ca         1 H9I      -0.090000
      6 C21          3.3360     1.0900    14.3100 ca         1 H9I      -0.073300
      7 C22          3.1700     2.0400    13.1230 c3         1 H9I      -0.013100
      8 C23          2.9130     1.2880    11.7960 c3         1 H9I      -0.203400
      9 C24          2.7350     2.2940    10.6490 c          1 H9I       0.718000
     10 C01          5.4230     3.5440    16.1990 c3         1 H9I      -0.086100
     11 C02          6.8320     3.4230    16.8140 c3         1 H9I      -0.131700
     12 C03          7.8370     4.3680    16.1590 ca         1 H9I       0.188300
     13 C05          8.7630     6.4560    16.0690 ca         1 H9I       0.397900
     14 C08          9.5420     4.9540    14.5640 ca         1 H9I       0.394900
     15 C16          4.5880     0.5030    14.6100 ca         1 H9I       0.137100
     16 C17          4.7070    -0.3680    15.7170 ca         1 H9I      -0.208000
     17 C18          3.5880    -0.6500    16.5170 ca         1 H9I      -0.100000
     18 C19          2.3470    -0.0690    16.2180 ca         1 H9I      -0.152000
     19 C27          7.7540     0.4770    11.5530 cy         1 H9I       0.151600
     20 C29          9.3260     0.2040    12.8580 cy         1 H9I       0.151600
     21 N04          7.8910     5.6230    16.6530 nb         1 H9I      -0.278000
     22 N06          8.8170     7.7110    16.5690 nv         1 H9I      -1.050900
     23 N07          9.5970     6.1960    15.0570 nb         1 H9I      -0.330000
     24 N09         10.4300     4.7020    13.5640 nv         1 H9I      -1.063900
     25 O11          8.6010     2.6890    14.5730 os         1 H9I      -0.360100
     26 O15          5.6710     0.8120    13.8090 os         1 H9I      -0.334100
     27 O25          1.6120     2.7220    10.4270 o          1 H9I      -0.739500
     28 O26          3.7300     2.6590    10.0410 o          1 H9I      -0.739500
     29 O28          8.6790    -0.6320    11.8350 oq         1 H9I      -0.462000
     30 H122         7.0190     2.8870    13.2050 h1         1 H9I       0.055200
     31 H121         8.6420     2.9150    12.4850 h1         1 H9I       0.055200
     32 H141         7.3260     0.5450    15.0740 h1         1 H9I       0.038200
     33 H142         7.0070    -0.7920    13.9410 h1         1 H9I       0.038200
     34 H201         1.2530     1.2400    14.8960 ha         1 H9I       0.115000
     35 H221         2.3370     2.7290    13.3100 hc         1 H9I       0.051200
     36 H222         4.0580     2.6750    13.0130 hc         1 H9I       0.051200
     37 H232         3.7980     0.6630    11.6270 hc         1 H9I       0.020700
     38 H231         1.9910     0.7140    11.9530 hc         1 H9I       0.020700
     39 H012         4.7380     2.8240    16.6630 hc         1 H9I       0.046033
     40 H011         5.0190     4.5510    16.3500 hc         1 H9I       0.046033
     41 H013         5.4540     3.3450    15.1220 hc         1 H9I       0.046033
     42 H021         6.7680     3.6270    17.8890 hc         1 H9I       0.058200
     43 H022         7.1710     2.3850    16.7260 hc         1 H9I       0.058200
     44 H171         5.6540    -0.8320    15.9720 ha         1 H9I       0.103000
     45 H181         3.6830    -1.3210    17.3690 ha         1 H9I       0.094000
     46 H191         1.4810    -0.2900    16.8380 ha         1 H9I       0.100000
     47 H272         6.7470     0.1340    11.2890 h1         1 H9I       0.060450
     48 H271         8.1590     1.1590    10.7940 h1         1 H9I       0.060450
     49 H291         9.6760    -0.3740    13.7210 h1         1 H9I       0.060450
     50 H292        10.1300     0.8170    12.4310 h1         1 H9I       0.060450
     51 H062         8.3730     7.8940    17.4650 hn         1 H9I       0.478500
     52 H061         9.6010     8.3040    16.3110 hn         1 H9I       0.478500
     53 H092        11.1800     5.3730    13.4200 hn         1 H9I       0.486000
     54 H091        10.6490     3.7310    13.3660 hn         1 H9I       0.486000
@<TRIPOS>BOND
     1     1    12 ar  
     2     1    14 ar  
     3     1    25 1   
     4     2     3 1   
     5     2    25 1   
     6     2    30 1   
     7     2    31 1   
     8     3     4 1   
     9     3    19 1   
    10     3    20 1   
    11     4    26 1   
    12     4    32 1   
    13     4    33 1   
    14     5     6 ar  
    15     5    18 ar  
    16     5    34 1   
    17     6     7 1   
    18     6    15 ar  
    19     7     8 1   
    20     7    35 1   
    21     7    36 1   
    22     8     9 1   
    23     8    37 1   
    24     8    38 1   
    25     9    27 1   
    26     9    28 1   
    27    10    11 1   
    28    10    39 1   
    29    10    40 1   
    30    10    41 1   
    31    11    12 1   
    32    11    42 1   
    33    11    43 1   
    34    12    21 ar  
    35    13    21 ar  
    36    13    22 1   
    37    13    23 ar  
    38    14    23 ar  
    39    14    24 1   
    40    15    16 ar  
    41    15    26 1   
    42    16    17 ar  
    43    16    44 1   
    44    17    18 ar  
    45    17    45 1   
    46    18    46 1   
    47    19    29 1   
    48    19    47 1   
    49    19    48 1   
    50    20    29 1   
    51    20    49 1   
    52    20    50 1   
    53    22    51 1   
    54    22    52 1   
    55    24    53 1   
    56    24    54 1   
@<TRIPOS>SUBSTRUCTURE
     1 H9I         1 TEMP              0 ****  ****    0 ROOT
