@<TRIPOS>MOLECULE
H9I
   54    56     1     0     0
SMALL
bcc


@<TRIPOS>ATOM
      1 C10          8.6610     3.8720    15.1280 ca         1 H9I      -0.250500
      2 C12          7.9860     2.5230    13.3200 c3         1 H9I       0.140400
      3 C13          7.8420     1.0560    12.9790 cy         1 H9I      -0.114000
      4 C14          6.9560     0.3100    13.9570 c3         1 H9I       0.159400
      5 C20          2.4010     0.7370    15.3570 ca         1 H9I      -0.108000
      6 C21          3.4260     1.0620    14.4800 ca         1 H9I      -0.073300
      7 C22          3.1730     1.9470    13.2920 c3         1 H9I      -0.013100
      8 C23          2.9680     1.1400    12.0110 c3         1 H9I      -0.203400
      9 C24          2.6960     1.9650    10.7360 c          1 H9I       0.928600
     10 C01          5.2150     4.1970    15.6330 c3         1 H9I      -0.086100
     11 C02          6.4540     3.6400    16.3300 c3         1 H9I      -0.131700
     12 C03          7.6950     4.3980    15.9570 ca         1 H9I       0.516600
     13 C05          8.8960     6.3200    16.1400 ca         1 H9I       0.923900
     14 C08          9.7880     4.6770    14.8540 ca         1 H9I       0.723200
     15 C16          4.6900     0.4920    14.7070 ca         1 H9I       0.137100
     16 C17          4.8930    -0.3860    15.7670 ca         1 H9I      -0.226000
     17 C18          3.8420    -0.6930    16.6250 ca         1 H9I      -0.118000
     18 C19          2.5930    -0.1300    16.4290 ca         1 H9I      -0.170000
     19 C27          7.5260     0.7710    11.5030 cy         1 H9I       0.128400
     20 C29          9.1560     0.3220    12.6730 cy         1 H9I       0.128400
     21 N04          7.8100     5.6300    16.4700 nb         1 H9I      -0.804000
     22 N06          8.9930     7.5900    16.6140 nv         1 H9I      -0.940500
     23 N07          9.8950     5.8980    15.3630 nb         1 H9I      -0.856000
     24 N09         10.7760     4.2350    14.0500 nv         1 H9I      -0.953500
     25 O11          8.5880     2.6110    14.6070 os         1 H9I      -0.336900
     26 O15          5.6600     0.8570    13.8420 os         1 H9I      -0.310900
     27 O25          2.4290     1.3020     9.7130 o          1 H9I      -0.844800
     28 O26          2.7710     3.2070    10.8210 o          1 H9I      -0.844800
     29 O28          8.7330     0.0180    11.3400 oq         1 H9I      -0.415600
     30 H122         7.0120     3.0240    13.3140 h1         1 H9I       0.055200
     31 H121         8.6130     3.0180    12.5690 h1         1 H9I       0.055200
     32 H141         7.3470     0.4170    14.9750 h1         1 H9I       0.038200
     33 H142         6.9420    -0.7610    13.7200 h1         1 H9I       0.038200
     34 H201         1.4230     1.1750    15.1950 ha         1 H9I       0.133000
     35 H221         2.2810     2.5480    13.4860 hc         1 H9I       0.051200
     36 H222         3.9900     2.6570    13.1550 hc         1 H9I       0.051200
     37 H232         3.8450     0.5110    11.8240 hc         1 H9I       0.020700
     38 H231         2.1420     0.4360    12.1550 hc         1 H9I       0.020700
     39 H012         4.3240     3.6520    15.9430 hc         1 H9I       0.046033
     40 H011         5.0690     5.2500    15.8740 hc         1 H9I       0.046033
     41 H013         5.2960     4.1080    14.5490 hc         1 H9I       0.046033
     42 H021         6.3240     3.7200    17.4120 hc         1 H9I       0.058200
     43 H022         6.5630     2.5810    16.1020 hc         1 H9I       0.058200
     44 H171         5.8590    -0.8410    15.9390 ha         1 H9I       0.121000
     45 H181         4.0140    -1.3760    17.4470 ha         1 H9I       0.112000
     46 H191         1.7730    -0.3620    17.0960 ha         1 H9I       0.118000
     47 H272         6.6280     0.1770    11.3140 h1         1 H9I       0.060450
     48 H271         7.4980     1.6590    10.8630 h1         1 H9I       0.060450
     49 H291         9.3550    -0.5760    13.2670 h1         1 H9I       0.060450
     50 H292        10.0480     0.9570    12.6950 h1         1 H9I       0.060450
     51 H062         8.4080     7.8340    17.3950 hn         1 H9I       0.423300
     52 H061         9.9030     8.0180    16.6050 hn         1 H9I       0.423300
     53 H092        11.6340     4.7610    14.0290 hn         1 H9I       0.430800
     54 H091        10.8550     3.2510    13.8560 hn         1 H9I       0.430800
@<TRIPOS>BOND
     1     1    12 ar  
     2     1    14 ar  
     3     1    25 1   
     4     2     3 1   
     5     2    25 1   
     6     2    30 1   
     7     2    31 1   
     8     3     4 1   
     9     3    19 1   
    10     3    20 1   
    11     4    26 1   
    12     4    32 1   
    13     4    33 1   
    14     5     6 ar  
    15     5    18 ar  
    16     5    34 1   
    17     6     7 1   
    18     6    15 ar  
    19     7     8 1   
    20     7    35 1   
    21     7    36 1   
    22     8     9 1   
    23     8    37 1   
    24     8    38 1   
    25     9    27 1   
    26     9    28 1   
    27    10    11 1   
    28    10    39 1   
    29    10    40 1   
    30    10    41 1   
    31    11    12 1   
    32    11    42 1   
    33    11    43 1   
    34    12    21 ar  
    35    13    21 ar  
    36    13    22 1   
    37    13    23 ar  
    38    14    23 ar  
    39    14    24 1   
    40    15    16 ar  
    41    15    26 1   
    42    16    17 ar  
    43    16    44 1   
    44    17    18 ar  
    45    17    45 1   
    46    18    46 1   
    47    19    29 1   
    48    19    47 1   
    49    19    48 1   
    50    20    29 1   
    51    20    49 1   
    52    20    50 1   
    53    22    51 1   
    54    22    52 1   
    55    24    53 1   
    56    24    54 1   
@<TRIPOS>SUBSTRUCTURE
     1 H9I         1 TEMP              0 ****  ****    0 ROOT
