@<TRIPOS>MOLECULE
H9J
   33    33     1     0     0
SMALL
abcg2


@<TRIPOS>ATOM
      1 C1          -0.8810    -1.3990     0.0570 c6         1 H9J       0.125800
      2 C2          -0.0590    -0.1530    -0.2530 c6         1 H9J       0.123700
      3 C3          -0.6590     1.0880     0.4040 c6         1 H9J       0.125800
      4 C4          -2.1150     1.2780    -0.0280 c6         1 H9J       0.148300
      5 C5          -2.9510     0.0390     0.2960 c6         1 H9J      -0.048700
      6 C6          -4.4100     0.2450    -0.0930 c3         1 H9J       0.170600
      7 C8           3.7150    -0.3620     0.1080 c3         1 H9J       0.212000
      8 C9          -2.3450    -1.2020    -0.3570 c6         1 H9J       0.148300
      9 F81          3.9620    -1.6750     0.0760 f          1 H9J      -0.105000
     10 F82          4.7080     0.2560    -0.5160 f          1 H9J      -0.105000
     11 F83          3.7310     0.0190     1.3890 f          1 H9J      -0.105000
     12 N2           1.3100    -0.3510     0.1760 ns         1 H9J      -0.476900
     13 O3           0.1370     2.1890     0.0330 oh         1 H9J      -0.658000
     14 O4          -2.6730     2.3910     0.6410 oh         1 H9J      -0.661000
     15 O6          -5.1350    -0.9290     0.2050 oh         1 H9J      -0.672000
     16 O7           2.3670     0.3630    -1.7130 o          1 H9J      -0.534100
     17 O9          -2.4390    -1.0610    -1.7590 oh         1 H9J      -0.661000
     18 H1          -0.4650    -2.2360    -0.5220 h1         1 H9J       0.051200
     19 H2          -0.0530    -0.0150    -1.3350 h1         1 H9J       0.106700
     20 H3          -0.6420     0.9540     1.4950 h1         1 H9J       0.051200
     21 H4          -2.1310     1.4450    -1.1140 h1         1 H9J       0.059700
     22 H5          -2.9100    -0.1230     1.3800 hc         1 H9J       0.082700
     23 H62         -4.8070     1.1010     0.4620 h1         1 H9J       0.034700
     24 H61         -4.4760     0.4980    -1.1590 h1         1 H9J       0.034700
     25 H7          -2.9030    -2.0850    -0.0200 h1         1 H9J       0.059700
     26 HN2          1.4380    -0.6720     1.1250 hn         1 H9J       0.340500
     27 HO3         -0.0210     2.9030     0.6580 ho         1 H9J       0.452000
     28 HO4         -2.4600     3.1870     0.1460 ho         1 H9J       0.448000
     29 HO6         -6.0550    -0.7770    -0.0280 ho         1 H9J       0.447000
     30 H02         -2.1770    -1.8900    -2.1700 ho         1 H9J       0.448000
     31 O1          -0.7670    -1.6520     1.4400 oh         1 H9J      -0.658000
     32 H6          -1.0810    -2.5440     1.6180 ho         1 H9J       0.452000
     33 C7           2.3680    -0.0570    -0.5750 c          1 H9J       0.561100
@<TRIPOS>BOND
     1     1     2 1   
     2     1     8 1   
     3     1    18 1   
     4     1    31 1   
     5     2     3 1   
     6     2    12 1   
     7     2    19 1   
     8     3     4 1   
     9     3    13 1   
    10     3    20 1   
    11     4     5 1   
    12     4    14 1   
    13     4    21 1   
    14     5     6 1   
    15     5     8 1   
    16     5    22 1   
    17     6    15 1   
    18     6    23 1   
    19     6    24 1   
    20     7     9 1   
    21     7    10 1   
    22     7    11 1   
    23     7    33 1   
    24     8    17 1   
    25     8    25 1   
    26    12    26 1   
    27    12    33 1   
    28    13    27 1   
    29    14    28 1   
    30    15    29 1   
    31    16    33 2   
    32    17    30 1   
    33    31    32 1   
@<TRIPOS>SUBSTRUCTURE
     1 H9J         1 TEMP              0 ****  ****    0 ROOT
