@<TRIPOS>MOLECULE
H9J
   33    33     1     0     0
SMALL
No Charge or Current Charge


@<TRIPOS>ATOM
      1 C1          -0.9040    -1.4240     0.0860 c6         1 H9J       0.125800
      2 C2          -0.0510    -0.1740    -0.3080 c6         1 H9J       0.123700
      3 C3          -0.6920     1.1270     0.2830 c6         1 H9J       0.125800
      4 C4          -2.1850     1.2820    -0.1440 c6         1 H9J       0.148300
      5 C5          -3.0260     0.0310     0.2540 c6         1 H9J      -0.048700
      6 C6          -4.5320     0.1850    -0.1230 c3         1 H9J       0.170600
      7 C8           3.8050    -0.1310     0.3580 c3         1 H9J       0.212000
      8 C9          -2.3930    -1.2570    -0.3630 c6         1 H9J       0.148300
      9 F81          4.0400    -1.4530     0.1760 f          1 H9J      -0.105000
     10 F82          4.8580     0.5410    -0.1680 f          1 H9J      -0.105000
     11 F83          3.8060     0.1000     1.6920 f          1 H9J      -0.105000
     12 N2           1.3360    -0.3620     0.1740 ns         1 H9J      -0.476900
     13 O3           0.0380     2.3050    -0.1210 oh         1 H9J      -0.658000
     14 O4          -2.7100     2.4740     0.4580 oh         1 H9J      -0.661000
     15 O6          -5.3230    -0.9170     0.3500 oh         1 H9J      -0.672000
     16 O7           2.3570     1.1730    -1.1390 o          1 H9J      -0.534100
     17 O9          -2.4670    -1.2080    -1.8010 oh         1 H9J      -0.661000
     18 H1          -0.4880    -2.2880    -0.4540 h1         1 H9J       0.051200
     19 H2          -0.0360    -0.0990    -1.4060 h1         1 H9J       0.106700
     20 H3          -0.6610     1.0420     1.3790 h1         1 H9J       0.051200
     21 H4          -2.2160     1.3840    -1.2400 h1         1 H9J       0.059700
     22 H5          -3.0040    -0.0600     1.3480 hc         1 H9J       0.082700
     23 H62         -4.9120     1.1190     0.3140 h1         1 H9J       0.034700
     24 H61         -4.6200     0.2790    -1.2140 h1         1 H9J       0.034700
     25 H7          -2.9590    -2.1270     0.0030 h1         1 H9J       0.059700
     26 HN2          1.4800    -1.0480     0.9080 hn         1 H9J       0.340500
     27 HO3          0.8880     1.9890    -0.5200 ho         1 H9J       0.452000
     28 HO4         -1.9580     3.1100     0.4350 ho         1 H9J       0.448000
     29 HO6         -6.2510    -0.7410     0.0760 ho         1 H9J       0.447000
     30 H02         -2.5650    -2.1340    -2.1180 ho         1 H9J       0.448000
     31 O1          -0.8050    -1.6750     1.5050 oh         1 H9J      -0.658000
     32 H6          -1.1870    -2.5660     1.6740 ho         1 H9J       0.452000
     33 C7           2.4570     0.2970    -0.2880 c          1 H9J       0.561100
@<TRIPOS>BOND
     1     1     2 1   
     2     1     8 1   
     3     1    18 1   
     4     1    31 1   
     5     2     3 1   
     6     2    12 1   
     7     2    19 1   
     8     3     4 1   
     9     3    13 1   
    10     3    20 1   
    11     4     5 1   
    12     4    14 1   
    13     4    21 1   
    14     5     6 1   
    15     5     8 1   
    16     5    22 1   
    17     6    15 1   
    18     6    23 1   
    19     6    24 1   
    20     7     9 1   
    21     7    10 1   
    22     7    11 1   
    23     7    33 1   
    24     8    17 1   
    25     8    25 1   
    26    12    26 1   
    27    12    33 1   
    28    13    27 1   
    29    14    28 1   
    30    15    29 1   
    31    16    33 2   
    32    17    30 1   
    33    31    32 1   
@<TRIPOS>SUBSTRUCTURE
     1 H9J         1 TEMP              0 ****  ****    0 ROOT
