@<TRIPOS>MOLECULE
H9K
   42    46     1     0     0
SMALL
No Charge or Current Charge


@<TRIPOS>ATOM
      1 O2           7.4280    -2.5110     0.0410 oh         1 H9K      -0.535100
      2 C19          6.4740    -1.5390     0.0160 ca         1 H9K       0.145100
      3 C18          5.1120    -1.9030     0.0160 ca         1 H9K      -0.138000
      4 C20          6.8570    -0.1800    -0.0100 ca         1 H9K      -0.214000
      5 C21          5.8770     0.8330    -0.0360 ca         1 H9K      -0.031000
      6 C22          4.5330     0.4380    -0.0350 ca         1 H9K      -0.156500
      7 C14          3.3390     1.2150    -0.0570 cc         1 H9K       0.298500
      8 N2           3.1010     2.5020    -0.0850 nd         1 H9K      -0.483800
      9 N1           1.6890     2.4990    -0.0920 na         1 H9K      -0.010200
     10 C17          4.1360    -0.8940    -0.0100 ca         1 H9K      -0.046300
     11 C16          2.6020    -1.0810    -0.0140 c5         1 H9K       0.053200
     12 C15          2.2300     0.4060    -0.0460 cc         1 H9K      -0.203300
     13 C13          1.1220     1.1970    -0.0680 cd         1 H9K      -0.061000
     14 C10         -0.3150     0.8500    -0.0680 ca         1 H9K      -0.016000
     15 C9          -0.7500    -0.4910    -0.0440 ca         1 H9K      -0.096000
     16 C8          -2.1200    -0.8030    -0.0430 ca         1 H9K      -0.101500
     17 C11         -1.2900     1.8690    -0.0930 ca         1 H9K      -0.096000
     18 C12         -2.6600     1.5550    -0.0940 ca         1 H9K      -0.101500
     19 C7          -3.1060     0.2120    -0.0680 cp         1 H9K      -0.013000
     20 C4          -4.5670    -0.1230    -0.0690 cp         1 H9K      -0.078000
     21 C3          -5.5000     0.6710    -0.7840 ca         1 H9K      -0.057000
     22 C2          -6.8700     0.3550    -0.7840 ca         1 H9K      -0.177000
     23 C5          -5.0620    -1.2430     0.6470 ca         1 H9K      -0.057000
     24 C6          -6.4330    -1.5570     0.6470 ca         1 H9K      -0.177000
     25 C1          -7.3360    -0.7570    -0.0690 ca         1 H9K       0.146100
     26 O1          -8.6650    -1.0540    -0.0750 oh         1 H9K      -0.531100
     27 H14          8.3080    -2.0770     0.0360 ho         1 H9K       0.465000
     28 H13          4.8220    -2.9500     0.0360 ha         1 H9K       0.130000
     29 H15          7.9090     0.0960    -0.0100 ha         1 H9K       0.113000
     30 H16          6.1530     1.8860    -0.0560 ha         1 H9K       0.125000
     31 H1           1.1670     3.3720    -0.1120 hn         1 H9K       0.371000
     32 H12          2.2450    -1.6220    -0.8980 hc         1 H9K       0.067200
     33 H11          2.2360    -1.5850     0.8870 hc         1 H9K       0.067200
     34 H8          -0.0350    -1.3050    -0.0280 ha         1 H9K       0.112500
     35 H7          -2.4180    -1.8490    -0.0380 ha         1 H9K       0.116500
     36 H9          -0.9970     2.9150    -0.1090 ha         1 H9K       0.112500
     37 H10         -3.3830     2.3660    -0.0990 ha         1 H9K       0.116500
     38 H4          -5.1590     1.5300    -1.3570 ha         1 H9K       0.116000
     39 H3          -7.5690     0.9730    -1.3410 ha         1 H9K       0.122500
     40 H5          -4.3800    -1.8680     1.2190 ha         1 H9K       0.116000
     41 H6          -6.7850    -2.4200     1.2080 ha         1 H9K       0.122500
     42 H2          -8.8060    -1.8560     0.4720 ho         1 H9K       0.466000
@<TRIPOS>BOND
     1     1     2 1   
     2     1    27 1   
     3     2     3 ar  
     4     2     4 ar  
     5     3    10 ar  
     6     3    28 1   
     7     4     5 ar  
     8     4    29 1   
     9     5     6 ar  
    10     5    30 1   
    11     6     7 1   
    12     6    10 ar  
    13     7     8 2   
    14     7    12 1   
    15     8     9 1   
    16     9    13 1   
    17     9    31 1   
    18    10    11 1   
    19    11    12 1   
    20    11    32 1   
    21    11    33 1   
    22    12    13 2   
    23    13    14 1   
    24    14    15 ar  
    25    14    17 ar  
    26    15    16 ar  
    27    15    34 1   
    28    16    19 ar  
    29    16    35 1   
    30    17    18 ar  
    31    17    36 1   
    32    18    19 ar  
    33    18    37 1   
    34    19    20 1   
    35    20    21 ar  
    36    20    23 ar  
    37    21    22 ar  
    38    21    38 1   
    39    22    25 ar  
    40    22    39 1   
    41    23    24 ar  
    42    23    40 1   
    43    24    25 ar  
    44    24    41 1   
    45    25    26 1   
    46    26    42 1   
@<TRIPOS>SUBSTRUCTURE
     1 H9K         1 TEMP              0 ****  ****    0 ROOT
