@<TRIPOS>MOLECULE
H9K
   42    46     1     0     0
SMALL
bcc


@<TRIPOS>ATOM
      1 O2           7.3710    -2.5150    -0.0270 oh         1 H9K      -0.496100
      2 C19          6.4600    -1.5210    -0.0280 ca         1 H9K       0.145100
      3 C18          5.1120    -1.8890    -0.0200 ca         1 H9K      -0.156000
      4 C20          6.8260    -0.1750    -0.0370 ca         1 H9K      -0.232000
      5 C21          5.8560     0.8190    -0.0400 ca         1 H9K      -0.049000
      6 C22          4.5180     0.4590    -0.0320 ca         1 H9K      -0.156500
      7 C14          3.2820     1.2230    -0.0330 cc         1 H9K       0.363800
      8 N2           2.9270     2.4920    -0.0450 nd         1 H9K      -0.483800
      9 N1           1.5930     2.4360    -0.0440 na         1 H9K      -0.010600
     10 C17          4.1520    -0.8980    -0.0220 ca         1 H9K      -0.046300
     11 C16          2.6430    -1.0720    -0.0130 c5         1 H9K       0.053200
     12 C15          2.1860     0.3510    -0.0210 cc         1 H9K      -0.268600
     13 C13          1.0810     1.1750    -0.0300 cd         1 H9K      -0.010300
     14 C10         -0.3460     0.8790    -0.0310 ca         1 H9K      -0.016000
     15 C9          -0.7730    -0.4480     0.0510 ca         1 H9K      -0.114000
     16 C8          -2.1190    -0.7660     0.0420 ca         1 H9K      -0.119500
     17 C11         -1.3210     1.8750    -0.1170 ca         1 H9K      -0.114000
     18 C12         -2.6670     1.5520    -0.1200 ca         1 H9K      -0.119500
     19 C7          -3.0970     0.2270    -0.0440 cp         1 H9K      -0.013000
     20 C4          -4.5320    -0.1130    -0.0580 cp         1 H9K      -0.078000
     21 C3          -5.4490     0.6470    -0.7870 ca         1 H9K      -0.075000
     22 C2          -6.7960     0.3330    -0.8090 ca         1 H9K      -0.195000
     23 C5          -5.0240    -1.2070     0.6550 ca         1 H9K      -0.075000
     24 C6          -6.3700    -1.5340     0.6430 ca         1 H9K      -0.195000
     25 C1          -7.2680    -0.7640    -0.0920 ca         1 H9K       0.146100
     26 O1          -8.5860    -1.0320    -0.1460 oh         1 H9K      -0.492100
     27 H14          8.2640    -2.1530    -0.0370 ho         1 H9K       0.426000
     28 H13          4.8380    -2.9380    -0.0120 ha         1 H9K       0.148000
     29 H15          7.8750     0.0990    -0.0440 ha         1 H9K       0.131000
     30 H16          6.1540     1.8600    -0.0480 ha         1 H9K       0.143000
     31 H1           1.0770     3.3020    -0.0450 hn         1 H9K       0.320700
     32 H12          2.3020    -1.6390    -0.8840 hc         1 H9K       0.067200
     33 H11          2.3120    -1.6250     0.8700 hc         1 H9K       0.067200
     34 H8          -0.0490    -1.2490     0.1160 ha         1 H9K       0.130500
     35 H7          -2.4060    -1.8090     0.0840 ha         1 H9K       0.134500
     36 H9          -1.0500     2.9210    -0.1790 ha         1 H9K       0.130500
     37 H10         -3.3910     2.3550    -0.1630 ha         1 H9K       0.134500
     38 H4          -5.1080     1.4940    -1.3710 ha         1 H9K       0.134000
     39 H3          -7.4840     0.9300    -1.3940 ha         1 H9K       0.140500
     40 H5          -4.3510    -1.8100     1.2510 ha         1 H9K       0.134000
     41 H6          -6.7180    -2.3880     1.2130 ha         1 H9K       0.140500
     42 H2          -8.7930    -1.8110     0.3820 ho         1 H9K       0.427000
@<TRIPOS>BOND
     1     1     2 1   
     2     1    27 1   
     3     2     3 ar  
     4     2     4 ar  
     5     3    10 ar  
     6     3    28 1   
     7     4     5 ar  
     8     4    29 1   
     9     5     6 ar  
    10     5    30 1   
    11     6     7 1   
    12     6    10 ar  
    13     7     8 2   
    14     7    12 1   
    15     8     9 1   
    16     9    13 1   
    17     9    31 1   
    18    10    11 1   
    19    11    12 1   
    20    11    32 1   
    21    11    33 1   
    22    12    13 2   
    23    13    14 1   
    24    14    15 ar  
    25    14    17 ar  
    26    15    16 ar  
    27    15    34 1   
    28    16    19 ar  
    29    16    35 1   
    30    17    18 ar  
    31    17    36 1   
    32    18    19 ar  
    33    18    37 1   
    34    19    20 1   
    35    20    21 ar  
    36    20    23 ar  
    37    21    22 ar  
    38    21    38 1   
    39    22    25 ar  
    40    22    39 1   
    41    23    24 ar  
    42    23    40 1   
    43    24    25 ar  
    44    24    41 1   
    45    25    26 1   
    46    26    42 1   
@<TRIPOS>SUBSTRUCTURE
     1 H9K         1 TEMP              0 ****  ****    0 ROOT
