@<TRIPOS>MOLECULE
H9L
   18    17     1     0     0
SMALL
No Charge or Current Charge


@<TRIPOS>ATOM
      1 C01        -33.2000   -12.2650   -48.9460 c3         1 H9L       0.043900
      2 S          -32.6410   -10.5470   -49.3410 ss         1 H9L      -0.485000
      3 C02        -31.3090   -10.3490   -48.0700 c3         1 H9L       0.092600
      4 C03        -30.6580    -8.9560   -48.1810 c3         1 H9L      -0.066400
      5 C04        -29.5720    -8.6890   -47.1080 c3         1 H9L       0.019300
      6 C          -29.0820    -7.1940   -47.1550 c          1 H9L       0.693000
      7 O01        -28.4750    -9.6240   -47.2850 oh         1 H9L      -0.717000
      8 O02        -27.9670    -6.9780   -47.6140 o          1 H9L      -0.717500
      9 O          -29.7780    -6.3310   -46.6380 o          1 H9L      -0.717500
     10 H1         -34.0120   -12.5560   -49.6250 h1         1 H9L       0.046367
     11 H2         -32.3640   -12.9660   -49.0660 h1         1 H9L       0.046367
     12 H3         -33.5630   -12.3110   -47.9110 h1         1 H9L       0.046367
     13 H4         -31.7460   -10.4750   -47.0700 h1         1 H9L       0.052200
     14 H5         -30.5530   -11.1310   -48.2190 h1         1 H9L       0.052200
     15 H6         -30.2240    -8.8340   -49.1810 hc         1 H9L       0.054700
     16 H7         -31.4440    -8.1970   -48.0830 hc         1 H9L       0.054700
     17 H9         -30.0260    -8.8430   -46.1200 h1         1 H9L       0.024700
     18 H10        -27.7090    -9.0600   -47.5600 ho         1 H9L       0.476000
@<TRIPOS>BOND
     1     1     2 1   
     2     1    10 1   
     3     1    11 1   
     4     1    12 1   
     5     2     3 1   
     6     3     4 1   
     7     3    13 1   
     8     3    14 1   
     9     4     5 1   
    10     4    15 1   
    11     4    16 1   
    12     5     6 1   
    13     5     7 1   
    14     5    17 1   
    15     6     8 1   
    16     6     9 1   
    17     7    18 1   
@<TRIPOS>SUBSTRUCTURE
     1 H9L         1 TEMP              0 ****  ****    0 ROOT
