@<TRIPOS>MOLECULE
H9L
   18    17     1     0     0
SMALL
abcg2


@<TRIPOS>ATOM
      1 C01        -33.1420   -12.2230   -48.9320 c3         1 H9L       0.043900
      2 S          -32.6530   -10.5150   -49.2580 ss         1 H9L      -0.485000
      3 C02        -31.2970   -10.3410   -48.0610 c3         1 H9L       0.092600
      4 C03        -30.7150    -8.9380   -48.1400 c3         1 H9L      -0.066400
      5 C04        -29.5930    -8.7190   -47.1260 c3         1 H9L       0.019300
      6 C          -29.0610    -7.2660   -47.1960 c          1 H9L       0.693000
      7 O01        -28.5260    -9.6100   -47.3310 oh         1 H9L      -0.717000
      8 O02        -27.8330    -7.1790   -47.4340 o          1 H9L      -0.717500
      9 O          -29.8670    -6.3420   -47.0180 o          1 H9L      -0.717500
     10 H1         -33.9730   -12.4650   -49.5920 h1         1 H9L       0.046367
     11 H2         -32.3250   -12.9130   -49.1340 h1         1 H9L       0.046367
     12 H3         -33.4710   -12.3480   -47.9010 h1         1 H9L       0.046367
     13 H4         -31.6840   -10.5370   -47.0580 h1         1 H9L       0.052200
     14 H5         -30.5360   -11.0920   -48.2800 h1         1 H9L       0.052200
     15 H6         -30.3390    -8.7480   -49.1500 hc         1 H9L       0.054700
     16 H7         -31.5030    -8.2070   -47.9480 hc         1 H9L       0.054700
     17 H9         -30.0170    -8.8700   -46.1200 h1         1 H9L       0.024700
     18 H10        -27.7870    -8.9920   -47.4950 ho         1 H9L       0.476000
@<TRIPOS>BOND
     1     1     2 1   
     2     1    10 1   
     3     1    11 1   
     4     1    12 1   
     5     2     3 1   
     6     3     4 1   
     7     3    13 1   
     8     3    14 1   
     9     4     5 1   
    10     4    15 1   
    11     4    16 1   
    12     5     6 1   
    13     5     7 1   
    14     5    17 1   
    15     6     8 1   
    16     6     9 1   
    17     7    18 1   
@<TRIPOS>SUBSTRUCTURE
     1 H9L         1 TEMP              0 ****  ****    0 ROOT
