@<TRIPOS>MOLECULE
H9M
   89    91     1     0     0
SMALL
No Charge or Current Charge


@<TRIPOS>ATOM
      1 S            1.2690    -1.7480    38.2060 ss         1 H9M      -0.000200
      2 O2           3.9470    -0.6670    43.1100 o          1 H9M      -0.603100
      3 N            0.0300     0.4690    39.1380 nc         1 H9M      -0.529100
      4 C7           0.8340    -0.5550    39.4580 cd         1 H9M       0.404200
      5 C6          -0.2560     0.3260    37.7830 ca         1 H9M       0.089400
      6 C5           0.2980    -0.7610    37.1310 ca         1 H9M      -0.175000
      7 C4           0.0810    -1.0090    35.7680 ca         1 H9M      -0.070000
      8 C3          -0.7310    -0.1200    35.0310 ca         1 H9M      -0.061300
      9 C2           0.3110    -0.2770    32.7180 c3         1 H9M      -0.085100
     10 O1          -0.4920     1.5980    43.3060 o          1 H9M      -0.602100
     11 O            3.5960     1.1060    38.6670 o          1 H9M      -0.607100
     12 C1          -0.9950    -0.3500    33.5410 c3         1 H9M      -0.019400
     13 C           -1.7490    -1.6760    33.2980 c3         1 H9M      -0.085100
     14 C8           1.3210    -0.7210    40.8730 c3         1 H9M      -0.109700
     15 C9           2.6200     0.0680    41.1850 c3         1 H9M       0.035700
     16 C14          2.2590     0.7320    44.9990 c3         1 H9M       0.091700
     17 C13          2.9910    -0.0230    42.6940 c          1 H9M       0.596100
     18 C12          6.6350     0.2640    38.6090 c3         1 H9M      -0.076100
     19 C11          5.3370    -0.5630    38.4890 c3         1 H9M      -0.156400
     20 N2           2.1600     0.6830    43.5360 ns         1 H9M      -0.490900
     21 C23          2.9550     2.0520    45.4940 c6         1 H9M      -0.070700
     22 C28          4.3450     2.2820    44.8240 c6         1 H9M      -0.072900
     23 C27          5.0200     3.5850    45.3210 c6         1 H9M      -0.073900
     24 C26          5.1580     3.5950    46.8600 c6         1 H9M      -0.075400
     25 C25          3.7830     3.3870    47.5370 c6         1 H9M      -0.073900
     26 C24          3.1070     2.0830    47.0470 c6         1 H9M      -0.072900
     27 C15          0.8530     0.4570    45.6070 c3         1 H9M       0.074000
     28 N3          -0.0740     1.6020    45.5480 ns         1 H9M      -0.507900
     29 C16         -0.6630     2.1020    44.4060 c          1 H9M       0.594100
     30 C17         -1.5500     3.3440    44.6230 c3         1 H9M      -0.139700
     31 C22         -0.9650     4.5710    43.8830 c3         1 H9M      -0.089100
     32 C18         -3.0240     3.0700    44.2200 c3         1 H9M      -0.068400
     33 C19         -3.6660     1.8850    44.9830 c3         1 H9M       0.163800
     34 N4          -5.1230     1.7140    44.7590 n3         1 H9M      -0.713600
     35 C21         -5.4830     1.4240    43.3500 c3         1 H9M       0.149100
     36 C20         -5.7160     0.7290    45.6910 c3         1 H9M       0.149100
     37 N1           3.7460    -0.4180    40.3530 ns         1 H9M      -0.512900
     38 C29         -1.0670     1.2170    37.0610 ca         1 H9M      -0.053000
     39 C30         -1.3030     0.9940    35.6890 ca         1 H9M      -0.111000
     40 H9           0.5350    -1.8750    35.2920 ha         1 H9M       0.123000
     41 H7           0.8180     0.6800    32.8880 hc         1 H9M       0.036033
     42 H6           0.9990    -1.0840    32.9940 hc         1 H9M       0.036033
     43 H8           0.0960    -0.3620    31.6460 hc         1 H9M       0.036033
     44 H5          -1.6440     0.4530    33.1690 hc         1 H9M       0.050700
     45 H4          -2.6820    -1.6970    33.8740 hc         1 H9M       0.036033
     46 H2          -2.0020    -1.7880    32.2370 hc         1 H9M       0.036033
     47 H3          -1.1420    -2.5390    33.5970 hc         1 H9M       0.036033
     48 H11          0.5260    -0.4010    41.5570 hc         1 H9M       0.095700
     49 H10          1.4870    -1.7840    41.0810 hc         1 H9M       0.095700
     50 H            2.4480     1.1320    40.9720 h1         1 H9M       0.091700
     51 H1           2.8990    -0.1030    45.3160 h1         1 H9M       0.081700
     52 H16          7.4680    -0.2560    38.1210 hc         1 H9M       0.042367
     53 H17          6.5170     1.2450    38.1320 hc         1 H9M       0.042367
     54 H15          6.8980     0.4220    39.6620 hc         1 H9M       0.042367
     55 H14          5.5090    -1.5420    38.9540 hc         1 H9M       0.058700
     56 H13          5.1100    -0.6940    37.4250 hc         1 H9M       0.058700
     57 H18          1.3560     1.1420    43.1130 hn         1 H9M       0.320500
     58 H34          2.3000     2.8830    45.1960 hc         1 H9M       0.042700
     59 H44          4.2420     2.3410    43.7330 hc         1 H9M       0.043950
     60 H43          5.0040     1.4260    45.0300 hc         1 H9M       0.043950
     61 H42          6.0100     3.6910    44.8580 hc         1 H9M       0.039700
     62 H41          4.4290     4.4530    44.9960 hc         1 H9M       0.039700
     63 H39          5.8510     2.8030    47.1770 hc         1 H9M       0.040700
     64 H40          5.5970     4.5460    47.1900 hc         1 H9M       0.040700
     65 H37          3.9070     3.3550    48.6280 hc         1 H9M       0.039700
     66 H38          3.1310     4.2450    47.3210 hc         1 H9M       0.039700
     67 H36          2.1270     1.9960    47.5320 hc         1 H9M       0.043950
     68 H35          3.6960     1.2170    47.3800 hc         1 H9M       0.043950
     69 H20          0.3950    -0.4000    45.0950 h1         1 H9M       0.071200
     70 H19          0.9720     0.1710    46.6610 h1         1 H9M       0.071200
     71 H21         -0.2810     2.0930    46.4100 hn         1 H9M       0.308500
     72 H47         -1.5420     3.5850    45.6930 hc         1 H9M       0.044700
     73 H48          0.0640     4.7630    44.2090 hc         1 H9M       0.046700
     74 H33         -0.9550     4.4060    42.7980 hc         1 H9M       0.046700
     75 H32         -1.5600     5.4690    44.0880 hc         1 H9M       0.046700
     76 H23         -3.6200     3.9720    44.4080 hc         1 H9M       0.061700
     77 H22         -3.0660     2.8780    43.1410 hc         1 H9M       0.061700
     78 H25         -3.1390     0.9590    44.7120 h1         1 H9M       0.028700
     79 H24         -3.4880     2.0500    46.0550 h1         1 H9M       0.028700
     80 H31         -6.5700     1.3000    43.2460 h1         1 H9M       0.030700
     81 H29         -5.1820     2.2420    42.6840 h1         1 H9M       0.030700
     82 H30         -5.0000     0.5000    43.0050 h1         1 H9M       0.030700
     83 H27         -6.8060     0.6800    45.5640 h1         1 H9M       0.030700
     84 H28         -5.3030    -0.2730    45.5170 h1         1 H9M       0.030700
     85 H26         -5.5120     1.0090    46.7340 h1         1 H9M       0.030700
     86 H12          4.3010    -1.1910    40.7060 hn         1 H9M       0.322500
     87 H45         -1.5100     2.0750    37.5600 ha         1 H9M       0.132000
     88 H46         -1.9320     1.6900    35.1400 ha         1 H9M       0.115000
     89 C10          4.1550     0.1400    39.1620 c          1 H9M       0.606100
@<TRIPOS>BOND
     1     1     4 1   
     2     1     6 1   
     3     2    17 2   
     4     3     4 2   
     5     3     5 1   
     6     4    14 1   
     7     5     6 ar  
     8     5    38 ar  
     9     6     7 ar  
    10     7     8 ar  
    11     7    40 1   
    12     8    12 1   
    13     8    39 ar  
    14     9    12 1   
    15     9    41 1   
    16     9    42 1   
    17     9    43 1   
    18    10    29 2   
    19    11    89 2   
    20    12    13 1   
    21    12    44 1   
    22    13    45 1   
    23    13    46 1   
    24    13    47 1   
    25    14    15 1   
    26    14    48 1   
    27    14    49 1   
    28    15    17 1   
    29    15    37 1   
    30    15    50 1   
    31    16    20 1   
    32    16    21 1   
    33    16    27 1   
    34    16    51 1   
    35    17    20 1   
    36    18    19 1   
    37    18    52 1   
    38    18    53 1   
    39    18    54 1   
    40    19    55 1   
    41    19    56 1   
    42    19    89 1   
    43    20    57 1   
    44    21    22 1   
    45    21    26 1   
    46    21    58 1   
    47    22    23 1   
    48    22    59 1   
    49    22    60 1   
    50    23    24 1   
    51    23    61 1   
    52    23    62 1   
    53    24    25 1   
    54    24    63 1   
    55    24    64 1   
    56    25    26 1   
    57    25    65 1   
    58    25    66 1   
    59    26    67 1   
    60    26    68 1   
    61    27    28 1   
    62    27    69 1   
    63    27    70 1   
    64    28    29 1   
    65    28    71 1   
    66    29    30 1   
    67    30    31 1   
    68    30    32 1   
    69    30    72 1   
    70    31    73 1   
    71    31    74 1   
    72    31    75 1   
    73    32    33 1   
    74    32    76 1   
    75    32    77 1   
    76    33    34 1   
    77    33    78 1   
    78    33    79 1   
    79    34    35 1   
    80    34    36 1   
    81    35    80 1   
    82    35    81 1   
    83    35    82 1   
    84    36    83 1   
    85    36    84 1   
    86    36    85 1   
    87    37    86 1   
    88    37    89 1   
    89    38    39 ar  
    90    38    87 1   
    91    39    88 1   
@<TRIPOS>SUBSTRUCTURE
     1 H9M         1 TEMP              0 ****  ****    0 ROOT
