@<TRIPOS>MOLECULE
H9M
   89    91     1     0     0
SMALL
abcg2


@<TRIPOS>ATOM
      1 S            1.4030    -1.3930    38.1390 ss         1 H9M      -0.000200
      2 O2           2.1640    -1.6550    43.3980 o          1 H9M      -0.603100
      3 N           -0.6910    -0.3250    39.1940 nc         1 H9M      -0.529100
      4 C7           0.3810    -0.9690    39.4940 cd         1 H9M       0.404200
      5 C6          -0.7870    -0.1100    37.8390 ca         1 H9M       0.089400
      6 C5           0.2720    -0.6280    37.0770 ca         1 H9M      -0.175000
      7 C4           0.3220    -0.4870    35.6970 ca         1 H9M      -0.070000
      8 C3          -0.7090     0.1860    35.0540 ca         1 H9M      -0.061300
      9 C2           0.5200     1.1630    33.0890 c3         1 H9M      -0.085100
     10 O1          -0.9400     0.1030    43.7110 o          1 H9M      -0.602100
     11 O            3.5670     1.6250    40.3390 o          1 H9M      -0.607100
     12 C1          -0.6950     0.3590    33.5520 c3         1 H9M      -0.019400
     13 C           -0.7690    -0.9880    32.8340 c3         1 H9M      -0.085100
     14 C8           0.7820    -1.3090    40.8880 c3         1 H9M      -0.109700
     15 C9           1.8660    -0.3550    41.3970 c3         1 H9M       0.035700
     16 C14          2.4180     0.7030    45.0070 c3         1 H9M       0.091700
     17 C13          2.0930    -0.5430    42.8980 c          1 H9M       0.596100
     18 C12          6.1230     1.0850    39.2330 c3         1 H9M      -0.076100
     19 C11          5.0940    -0.0090    39.4490 c3         1 H9M      -0.156400
     20 N2           2.2640     0.6020    43.5690 ns         1 H9M      -0.490900
     21 C23          3.1910     1.9870    45.3400 c6         1 H9M      -0.070700
     22 C28          4.5440     2.0150    44.6190 c6         1 H9M      -0.072900
     23 C27          5.3510     3.2630    44.9590 c6         1 H9M      -0.073900
     24 C26          5.5560     3.4040    46.4610 c6         1 H9M      -0.075400
     25 C25          4.2160     3.3900    47.1840 c6         1 H9M      -0.073900
     26 C24          3.4050     2.1430    46.8460 c6         1 H9M      -0.072900
     27 C15          1.0330     0.5970    45.6670 c3         1 H9M       0.074000
     28 N3           0.0940     1.5420    45.1160 ns         1 H9M      -0.507900
     29 C16         -0.7640     1.2430    44.1220 c          1 H9M       0.594100
     30 C17         -1.4950     2.4250    43.5080 c3         1 H9M      -0.139700
     31 C22         -1.0120     2.5930    42.0660 c3         1 H9M      -0.089100
     32 C18         -3.0080     2.2270    43.5620 c3         1 H9M      -0.068400
     33 C19         -3.5520     2.2070    44.9850 c3         1 H9M       0.163800
     34 N4          -5.0030     2.1630    45.0450 n3         1 H9M      -0.713600
     35 C21         -5.5350     0.8980    44.5860 c3         1 H9M       0.149100
     36 C20         -5.4720     2.4550    46.3820 c3         1 H9M       0.149100
     37 N1           3.1140    -0.5580    40.7030 ns         1 H9M      -0.512900
     38 C29         -1.8210     0.5630    37.1900 ca         1 H9M      -0.053000
     39 C30         -1.7690     0.7010    35.8160 ca         1 H9M      -0.111000
     40 H9           1.1530    -0.8950    35.1340 ha         1 H9M       0.123000
     41 H7           0.5590     2.1390    33.5730 hc         1 H9M       0.036033
     42 H6           1.4520     0.6410    33.3120 hc         1 H9M       0.036033
     43 H8           0.4820     1.3250    32.0110 hc         1 H9M       0.036033
     44 H5          -1.5910     0.9260    33.2820 hc         1 H9M       0.050700
     45 H4          -1.6440    -1.5580    33.1490 hc         1 H9M       0.036033
     46 H2          -0.8340    -0.8430    31.7540 hc         1 H9M       0.036033
     47 H3           0.1160    -1.5960    33.0310 hc         1 H9M       0.036033
     48 H11         -0.1010    -1.2120    41.5200 hc         1 H9M       0.095700
     49 H10          1.1280    -2.3430    40.9550 hc         1 H9M       0.095700
     50 H            1.5440     0.6680    41.1970 h1         1 H9M       0.091700
     51 H1           3.0130    -0.1480    45.3510 h1         1 H9M       0.081700
     52 H16          6.9730     0.6930    38.6750 hc         1 H9M       0.042367
     53 H17          5.7120     1.9190    38.6640 hc         1 H9M       0.042367
     54 H15          6.5000     1.4760    40.1780 hc         1 H9M       0.042367
     55 H14          5.5450    -0.8630    39.9620 hc         1 H9M       0.058700
     56 H13          4.7480    -0.3960    38.4850 hc         1 H9M       0.058700
     57 H18          2.1210     1.4650    43.0660 hn         1 H9M       0.320500
     58 H34          2.6040     2.8490    44.9890 hc         1 H9M       0.042700
     59 H44          4.4070     1.9570    43.5370 hc         1 H9M       0.043950
     60 H43          5.1130     1.1230    44.9070 hc         1 H9M       0.043950
     61 H42          6.3130     3.2320    44.4410 hc         1 H9M       0.039700
     62 H41          4.8240     4.1460    44.5820 hc         1 H9M       0.039700
     63 H39          6.1740     2.5750    46.8240 hc         1 H9M       0.040700
     64 H40          6.1010     4.3230    46.6890 hc         1 H9M       0.040700
     65 H37          4.3630     3.4500    48.2650 hc         1 H9M       0.039700
     66 H38          3.6430     4.2800    46.9000 hc         1 H9M       0.039700
     67 H36          2.4510     2.1900    47.3750 hc         1 H9M       0.043950
     68 H35          3.9290     1.2560    47.2230 hc         1 H9M       0.043950
     69 H20          0.6430    -0.4080    45.5140 h1         1 H9M       0.071200
     70 H19          1.1070     0.7430    46.7450 h1         1 H9M       0.071200
     71 H21          0.1810     2.5070    45.3930 hn         1 H9M       0.308500
     72 H47         -1.2420     3.3380    44.0580 hc         1 H9M       0.044700
     73 H48          0.0670     2.7470    42.0200 hc         1 H9M       0.046700
     74 H33         -1.2530     1.7150    41.4650 hc         1 H9M       0.046700
     75 H32         -1.4910     3.4580    41.6070 hc         1 H9M       0.046700
     76 H23         -3.4850     3.0460    43.0170 hc         1 H9M       0.061700
     77 H22         -3.2600     1.3080    43.0280 hc         1 H9M       0.061700
     78 H25         -3.1070     1.3690    45.5510 h1         1 H9M       0.028700
     79 H24         -3.2260     3.1220    45.4870 h1         1 H9M       0.028700
     80 H31         -6.6240     0.9130    44.6430 h1         1 H9M       0.030700
     81 H29         -5.2680     0.7130    43.5460 h1         1 H9M       0.030700
     82 H30         -5.1810     0.0410    45.1810 h1         1 H9M       0.030700
     83 H27         -6.5630     2.4700    46.4000 h1         1 H9M       0.030700
     84 H28         -5.1380     1.7210    47.1330 h1         1 H9M       0.030700
     85 H26         -5.1200     3.4380    46.6990 h1         1 H9M       0.030700
     86 H12          3.4660    -1.5020    40.6420 hn         1 H9M       0.322500
     87 H45         -2.6450     0.9700    37.7610 ha         1 H9M       0.132000
     88 H46         -2.5700     1.2240    35.3080 ha         1 H9M       0.115000
     89 C10          3.8700     0.4490    40.2100 c          1 H9M       0.606100
@<TRIPOS>BOND
     1     1     4 1   
     2     1     6 1   
     3     2    17 2   
     4     3     4 2   
     5     3     5 1   
     6     4    14 1   
     7     5     6 ar  
     8     5    38 ar  
     9     6     7 ar  
    10     7     8 ar  
    11     7    40 1   
    12     8    12 1   
    13     8    39 ar  
    14     9    12 1   
    15     9    41 1   
    16     9    42 1   
    17     9    43 1   
    18    10    29 2   
    19    11    89 2   
    20    12    13 1   
    21    12    44 1   
    22    13    45 1   
    23    13    46 1   
    24    13    47 1   
    25    14    15 1   
    26    14    48 1   
    27    14    49 1   
    28    15    17 1   
    29    15    37 1   
    30    15    50 1   
    31    16    20 1   
    32    16    21 1   
    33    16    27 1   
    34    16    51 1   
    35    17    20 1   
    36    18    19 1   
    37    18    52 1   
    38    18    53 1   
    39    18    54 1   
    40    19    55 1   
    41    19    56 1   
    42    19    89 1   
    43    20    57 1   
    44    21    22 1   
    45    21    26 1   
    46    21    58 1   
    47    22    23 1   
    48    22    59 1   
    49    22    60 1   
    50    23    24 1   
    51    23    61 1   
    52    23    62 1   
    53    24    25 1   
    54    24    63 1   
    55    24    64 1   
    56    25    26 1   
    57    25    65 1   
    58    25    66 1   
    59    26    67 1   
    60    26    68 1   
    61    27    28 1   
    62    27    69 1   
    63    27    70 1   
    64    28    29 1   
    65    28    71 1   
    66    29    30 1   
    67    30    31 1   
    68    30    32 1   
    69    30    72 1   
    70    31    73 1   
    71    31    74 1   
    72    31    75 1   
    73    32    33 1   
    74    32    76 1   
    75    32    77 1   
    76    33    34 1   
    77    33    78 1   
    78    33    79 1   
    79    34    35 1   
    80    34    36 1   
    81    35    80 1   
    82    35    81 1   
    83    35    82 1   
    84    36    83 1   
    85    36    84 1   
    86    36    85 1   
    87    37    86 1   
    88    37    89 1   
    89    38    39 ar  
    90    38    87 1   
    91    39    88 1   
@<TRIPOS>SUBSTRUCTURE
     1 H9M         1 TEMP              0 ****  ****    0 ROOT
