@<TRIPOS>MOLECULE
H9P
   85    88     1     0     0
SMALL
bcc


@<TRIPOS>ATOM
      1 O2          -0.6110    -1.4330   -42.9150 o          1 H9P      -0.605100
      2 C13         -0.8770    -0.3600   -42.3960 c          1 H9P       0.646100
      3 C9          -0.8730    -0.1700   -40.8730 c3         1 H9P       0.028700
      4 N1          -2.2370    -0.1380   -40.3900 ns         1 H9P      -0.573900
      5 C10         -2.9470     0.9990   -40.2360 c          1 H9P       0.671100
      6 O           -2.4830     2.1030   -40.4890 o          1 H9P      -0.615100
      7 C11         -4.3490     0.8160   -39.6990 c3         1 H9P      -0.153400
      8 C12         -5.3390     1.8090   -40.2900 c3         1 H9P      -0.080100
      9 C8          -0.0770    -1.2720   -40.1770 c3         1 H9P      -0.096700
     10 C7          -0.0290    -1.0470   -38.7030 cc         1 H9P       0.394200
     11 S           -1.0380    -1.9900   -37.6340 ss         1 H9P      -0.121100
     12 C5          -0.4070    -1.1000   -36.2920 ca         1 H9P      -0.048100
     13 C4          -0.7010    -1.2250   -34.9410 ca         1 H9P      -0.089000
     14 N            0.7040    -0.1600   -38.1320 nd         1 H9P      -0.528100
     15 C6           0.5200    -0.1590   -36.7680 ca         1 H9P       0.089400
     16 C29          1.1670     0.6720   -35.8560 ca         1 H9P      -0.068000
     17 C30          0.8730     0.5450   -34.5120 ca         1 H9P      -0.127000
     18 C3          -0.0560    -0.3930   -34.0350 ca         1 H9P      -0.058300
     19 C1          -0.3640    -0.4760   -32.5580 c3         1 H9P      -0.019400
     20 C2          -1.8020    -0.0390   -32.2750 c3         1 H9P      -0.085100
     21 C           -0.0950    -1.8700   -31.9910 c3         1 H9P      -0.085100
     22 N2          -1.2390     0.7440   -43.0660 ns         1 H9P      -0.567900
     23 C14         -1.4750     0.8030   -44.4940 c3         1 H9P       0.084700
     24 C23         -2.9440     1.1340   -44.7990 c6         1 H9P      -0.071700
     25 C28         -3.4020     2.5130   -44.3200 c6         1 H9P      -0.074900
     26 C27         -4.8940     2.7110   -44.5770 c6         1 H9P      -0.072900
     27 C26         -5.2420     2.5030   -46.0470 c6         1 H9P      -0.076400
     28 C25         -4.7630     1.1430   -46.5410 c6         1 H9P      -0.072900
     29 C24         -3.2720     0.9560   -46.2820 c6         1 H9P      -0.074900
     30 C15         -0.4610     1.7580   -45.1330 c3         1 H9P       0.094000
     31 N3           0.9000     1.3500   -44.8780 ns         1 H9P      -0.558900
     32 C16          1.5040     0.3580   -45.5500 c          1 H9P       0.673100
     33 O1           0.9870    -0.2200   -46.4970 o          1 H9P      -0.607100
     34 C17          2.8970    -0.0090   -45.0660 c3         1 H9P      -0.162700
     35 C22          2.9210    -1.4600   -44.5920 c3         1 H9P      -0.085100
     36 C18          3.9060     0.1970   -46.1940 c3         1 H9P       0.050300
     37 N4           3.9380     1.5660   -46.6640 na         1 H9P      -0.193900
     38 C21          4.5620     2.5990   -46.0570 cc         1 H9P       0.375400
     39 N5           4.3470     3.7330   -46.6720 nd         1 H9P      -0.672000
     40 C20          3.5360     3.4220   -47.7270 cd         1 H9P       0.286200
     41 C19          3.2680     2.0830   -47.7370 cc         1 H9P      -0.250600
     42 H           -0.4170     0.7920   -40.6330 h1         1 H9P       0.101700
     43 H12         -2.7120    -1.0200   -40.2730 hn         1 H9P       0.321500
     44 H13         -4.2980     0.9440   -38.6140 hc         1 H9P       0.060200
     45 H14         -4.6920    -0.2070   -39.8650 hc         1 H9P       0.060200
     46 H16         -6.3300     1.6460   -39.8670 hc         1 H9P       0.044033
     47 H15         -5.0520     2.8370   -40.0770 hc         1 H9P       0.044033
     48 H17         -5.4190     1.6980   -41.3720 hc         1 H9P       0.044033
     49 H10         -0.5020    -2.2510   -40.4040 hc         1 H9P       0.083200
     50 H11          0.9440    -1.2670   -40.5610 hc         1 H9P       0.083200
     51 H9          -1.4240    -1.9570   -34.6020 ha         1 H9P       0.142000
     52 H42          1.8850     1.4020   -36.2040 ha         1 H9P       0.151000
     53 H43          1.3740     1.1910   -33.8010 ha         1 H9P       0.135000
     54 H5           0.3030     0.2250   -32.0470 hc         1 H9P       0.051700
     55 H7          -1.9970    -0.0310   -31.2010 hc         1 H9P       0.036867
     56 H6          -1.9970     0.9620   -32.6590 hc         1 H9P       0.036867
     57 H8          -2.5190    -0.7210   -32.7360 hc         1 H9P       0.036867
     58 H2          -0.2660    -1.8830   -30.9140 hc         1 H9P       0.036867
     59 H4          -0.7550    -2.6160   -32.4360 hc         1 H9P       0.036867
     60 H3           0.9340    -2.1820   -32.1720 hc         1 H9P       0.036867
     61 H18         -1.4200     1.5780   -42.5250 hn         1 H9P       0.332500
     62 H1          -1.2850    -0.1980   -44.8840 h1         1 H9P       0.097700
     63 H31         -3.5320     0.3860   -44.2490 hc         1 H9P       0.052700
     64 H40         -3.2020     2.6430   -43.2530 hc         1 H9P       0.044700
     65 H41         -2.8420     3.2960   -44.8430 hc         1 H9P       0.044700
     66 H38         -5.1970     3.7090   -44.2520 hc         1 H9P       0.039200
     67 H39         -5.4600     2.0000   -43.9650 hc         1 H9P       0.039200
     68 H36         -4.7690     3.2910   -46.6440 hc         1 H9P       0.039200
     69 H37         -6.3200     2.6050   -46.1980 hc         1 H9P       0.039200
     70 H34         -4.9760     1.0280   -47.6060 hc         1 H9P       0.039200
     71 H35         -5.3200     0.3520   -46.0250 hc         1 H9P       0.039200
     72 H32         -2.9510    -0.0340   -46.6190 hc         1 H9P       0.044700
     73 H33         -2.7150     1.6850   -46.8810 hc         1 H9P       0.044700
     74 H19         -0.5800     2.7670   -44.7360 h1         1 H9P       0.063200
     75 H20         -0.6230     1.8170   -46.2090 h1         1 H9P       0.063200
     76 H21          1.3660     1.7410   -44.0760 hn         1 H9P       0.316500
     77 H22          3.1860     0.6350   -44.2290 hc         1 H9P       0.056700
     78 H30          2.2050    -1.6180   -43.7860 hc         1 H9P       0.050700
     79 H29          2.6750    -2.1460   -45.4030 hc         1 H9P       0.050700
     80 H28          3.9100    -1.7200   -44.2160 hc         1 H9P       0.050700
     81 H23          3.6680    -0.4490   -47.0390 h1         1 H9P       0.072200
     82 H24          4.9020    -0.0750   -45.8440 h1         1 H9P       0.072200
     83 H27          5.1690     2.4610   -45.1730 h5         1 H9P       0.049100
     84 H26          3.1940     4.1700   -48.4250 h4         1 H9P       0.037100
     85 H25          2.6830     1.4680   -48.4000 h4         1 H9P       0.184000
@<TRIPOS>BOND
     1     1     2 2   
     2     2     3 1   
     3     2    22 1   
     4     3     4 1   
     5     3     9 1   
     6     3    42 1   
     7     4     5 1   
     8     4    43 1   
     9     5     6 2   
    10     5     7 1   
    11     7     8 1   
    12     7    44 1   
    13     7    45 1   
    14     8    46 1   
    15     8    47 1   
    16     8    48 1   
    17     9    10 1   
    18     9    49 1   
    19     9    50 1   
    20    10    11 1   
    21    10    14 2   
    22    11    12 1   
    23    12    13 ar  
    24    12    15 ar  
    25    13    18 ar  
    26    13    51 1   
    27    14    15 1   
    28    15    16 ar  
    29    16    17 ar  
    30    16    52 1   
    31    17    18 ar  
    32    17    53 1   
    33    18    19 1   
    34    19    20 1   
    35    19    21 1   
    36    19    54 1   
    37    20    55 1   
    38    20    56 1   
    39    20    57 1   
    40    21    58 1   
    41    21    59 1   
    42    21    60 1   
    43    22    23 1   
    44    22    61 1   
    45    23    24 1   
    46    23    30 1   
    47    23    62 1   
    48    24    25 1   
    49    24    29 1   
    50    24    63 1   
    51    25    26 1   
    52    25    64 1   
    53    25    65 1   
    54    26    27 1   
    55    26    66 1   
    56    26    67 1   
    57    27    28 1   
    58    27    68 1   
    59    27    69 1   
    60    28    29 1   
    61    28    70 1   
    62    28    71 1   
    63    29    72 1   
    64    29    73 1   
    65    30    31 1   
    66    30    74 1   
    67    30    75 1   
    68    31    32 1   
    69    31    76 1   
    70    32    33 2   
    71    32    34 1   
    72    34    35 1   
    73    34    36 1   
    74    34    77 1   
    75    35    78 1   
    76    35    79 1   
    77    35    80 1   
    78    36    37 1   
    79    36    81 1   
    80    36    82 1   
    81    37    38 1   
    82    37    41 1   
    83    38    39 2   
    84    38    83 1   
    85    39    40 1   
    86    40    41 2   
    87    40    84 1   
    88    41    85 1   
@<TRIPOS>SUBSTRUCTURE
     1 H9P         1 TEMP              0 ****  ****    0 ROOT
