@<TRIPOS>MOLECULE
H9P
   85    88     1     0     0
SMALL
No Charge or Current Charge


@<TRIPOS>ATOM
      1 O2          -0.0750    -1.4870   -42.9950 o          1 H9P      -0.605100
      2 C13         -0.6830    -0.5800   -42.4430 c          1 H9P       0.579100
      3 C9          -0.6600    -0.3790   -40.8970 c3         1 H9P       0.028700
      4 N1          -1.6340     0.6560   -40.4570 ns         1 H9P      -0.506900
      5 C10         -1.2990     1.8490   -39.8530 c          1 H9P       0.604100
      6 O           -0.1400     2.1910   -39.6760 o          1 H9P      -0.615100
      7 C11         -2.4900     2.7010   -39.4050 c3         1 H9P      -0.153400
      8 C12         -2.7150     3.9030   -40.3480 c3         1 H9P      -0.080100
      9 C8          -0.8970    -1.6990   -40.1230 c3         1 H9P      -0.096700
     10 C7          -0.7230    -1.5510   -38.6370 cc         1 H9P       0.394200
     11 S           -2.1410    -1.2190   -37.6120 ss         1 H9P       0.005800
     12 C5          -1.0030    -1.2050   -36.2770 ca         1 H9P      -0.175000
     13 C4          -1.3260    -0.9790   -34.9310 ca         1 H9P      -0.071000
     14 N            0.4780    -1.6520   -38.0510 nd         1 H9P      -0.528100
     15 C6           0.2910    -1.4470   -36.6900 ca         1 H9P       0.089400
     16 C29          1.3290    -1.4720   -35.7450 ca         1 H9P      -0.050000
     17 C30          1.0350    -1.2490   -34.3850 ca         1 H9P      -0.109000
     18 C3          -0.2940    -1.0000   -33.9660 ca         1 H9P      -0.058300
     19 C1          -0.6000    -0.7590   -32.4860 c3         1 H9P      -0.019400
     20 C2          -1.1690     0.6580   -32.2510 c3         1 H9P      -0.085100
     21 C           -1.5320    -1.8500   -31.9160 c3         1 H9P      -0.085100
     22 N2          -1.4620     0.3110   -43.1530 ns         1 H9P      -0.500900
     23 C14         -1.6380     0.3240   -44.6140 c3         1 H9P       0.084700
     24 C23         -3.1560     0.2270   -44.9790 c6         1 H9P      -0.071700
     25 C28         -3.9930     1.4520   -44.4970 c6         1 H9P      -0.074900
     26 C27         -5.4970     1.2680   -44.8200 c6         1 H9P      -0.072900
     27 C26         -5.7210     1.0080   -46.3290 c6         1 H9P      -0.076400
     28 C25         -4.8930    -0.2060   -46.8160 c6         1 H9P      -0.072900
     29 C24         -3.3880    -0.0200   -46.4980 c6         1 H9P      -0.074900
     30 C15         -0.8750     1.5230   -45.2420 c3         1 H9P       0.094000
     31 N3           0.5550     1.5250   -44.9100 ns         1 H9P      -0.491900
     32 C16          1.4820     0.6600   -45.4450 c          1 H9P       0.606100
     33 O1           1.1870    -0.1660   -46.2980 o          1 H9P      -0.607100
     34 C17          2.9130     0.8200   -44.9000 c3         1 H9P      -0.162700
     35 C22          3.3840    -0.4690   -44.1850 c3         1 H9P      -0.085100
     36 C18          3.8830     1.2460   -46.0260 c3         1 H9P       0.079600
     37 N4           3.5380     2.5470   -46.6220 na         1 H9P      -0.172500
     38 C21          3.9880     3.7810   -46.2000 cc         1 H9P       0.375400
     39 N5           3.4800     4.7480   -46.9500 nd         1 H9P      -0.672000
     40 C20          2.6810     4.1180   -47.8820 cd         1 H9P       0.220900
     41 C19          2.7050     2.7600   -47.6990 cc         1 H9P      -0.218000
     42 H            0.3560    -0.0290   -40.6700 h1         1 H9P       0.101700
     43 H12         -2.6260     0.4500   -40.5260 hn         1 H9P       0.321500
     44 H13         -2.2900     3.0850   -38.3980 hc         1 H9P       0.060200
     45 H14         -3.4060     2.0970   -39.3970 hc         1 H9P       0.060200
     46 H16         -3.5690     4.5020   -40.0090 hc         1 H9P       0.044033
     47 H15         -1.8300     4.5510   -40.3700 hc         1 H9P       0.044033
     48 H17         -2.9200     3.5620   -41.3700 hc         1 H9P       0.044033
     49 H10         -1.9020    -2.0770   -40.3430 hc         1 H9P       0.083200
     50 H11         -0.1970    -2.4610   -40.4840 hc         1 H9P       0.083200
     51 H9          -2.3570    -0.7920   -34.6410 ha         1 H9P       0.124000
     52 H42          2.3510    -1.6620   -36.0620 ha         1 H9P       0.133000
     53 H43          1.8430    -1.2690   -33.6580 ha         1 H9P       0.117000
     54 H5           0.3370    -0.8180   -31.9180 hc         1 H9P       0.051700
     55 H7          -1.3060     0.8460   -31.1790 hc         1 H9P       0.036867
     56 H6          -0.4810     1.4180   -32.6430 hc         1 H9P       0.036867
     57 H8          -2.1380     0.7840   -32.7460 hc         1 H9P       0.036867
     58 H2          -1.6760    -1.7100   -30.8380 hc         1 H9P       0.036867
     59 H4          -2.5160    -1.8230   -32.3980 hc         1 H9P       0.036867
     60 H3          -1.0990    -2.8450   -32.0740 hc         1 H9P       0.036867
     61 H18         -1.9100     1.0370   -42.6090 hn         1 H9P       0.332500
     62 H1          -1.1750    -0.5870   -45.0170 h1         1 H9P       0.097700
     63 H31         -3.5250    -0.6610   -44.4440 hc         1 H9P       0.052700
     64 H40         -3.8750     1.5990   -43.4150 hc         1 H9P       0.044700
     65 H41         -3.6330     2.3720   -44.9780 hc         1 H9P       0.044700
     66 H38         -6.0560     2.1610   -44.5090 hc         1 H9P       0.039200
     67 H39         -5.9010     0.4290   -44.2360 hc         1 H9P       0.039200
     68 H36         -5.4400     1.9020   -46.9040 hc         1 H9P       0.039200
     69 H37         -6.7880     0.8340   -46.5240 hc         1 H9P       0.039200
     70 H34         -5.0310    -0.3410   -47.8970 hc         1 H9P       0.039200
     71 H35         -5.2630    -1.1230   -46.3370 hc         1 H9P       0.039200
     72 H32         -2.8330    -0.9110   -46.8230 hc         1 H9P       0.044700
     73 H33         -3.0000     0.8220   -47.0870 hc         1 H9P       0.044700
     74 H19         -1.3110     2.4650   -44.8870 h1         1 H9P       0.063200
     75 H20         -0.9760     1.4980   -46.3340 h1         1 H9P       0.063200
     76 H21          0.8900     2.1820   -44.2150 hn         1 H9P       0.316500
     77 H22          2.9080     1.6200   -44.1490 hc         1 H9P       0.056700
     78 H30          2.7000    -0.7300   -43.3680 hc         1 H9P       0.050700
     79 H29          3.4210    -1.3150   -44.8830 hc         1 H9P       0.050700
     80 H28          4.3850    -0.3330   -43.7570 hc         1 H9P       0.050700
     81 H23          3.8880     0.4850   -46.8180 h1         1 H9P       0.072200
     82 H24          4.9030     1.3100   -45.6240 h1         1 H9P       0.072200
     83 H27          4.6630     3.9000   -45.3600 h5         1 H9P       0.049100
     84 H26          2.1340     4.6760   -48.6330 h4         1 H9P       0.037100
     85 H25          2.2040     1.9640   -48.2370 h4         1 H9P       0.166000
@<TRIPOS>BOND
     1     1     2 2   
     2     2     3 1   
     3     2    22 1   
     4     3     4 1   
     5     3     9 1   
     6     3    42 1   
     7     4     5 1   
     8     4    43 1   
     9     5     6 2   
    10     5     7 1   
    11     7     8 1   
    12     7    44 1   
    13     7    45 1   
    14     8    46 1   
    15     8    47 1   
    16     8    48 1   
    17     9    10 1   
    18     9    49 1   
    19     9    50 1   
    20    10    11 1   
    21    10    14 2   
    22    11    12 1   
    23    12    13 ar  
    24    12    15 ar  
    25    13    18 ar  
    26    13    51 1   
    27    14    15 1   
    28    15    16 ar  
    29    16    17 ar  
    30    16    52 1   
    31    17    18 ar  
    32    17    53 1   
    33    18    19 1   
    34    19    20 1   
    35    19    21 1   
    36    19    54 1   
    37    20    55 1   
    38    20    56 1   
    39    20    57 1   
    40    21    58 1   
    41    21    59 1   
    42    21    60 1   
    43    22    23 1   
    44    22    61 1   
    45    23    24 1   
    46    23    30 1   
    47    23    62 1   
    48    24    25 1   
    49    24    29 1   
    50    24    63 1   
    51    25    26 1   
    52    25    64 1   
    53    25    65 1   
    54    26    27 1   
    55    26    66 1   
    56    26    67 1   
    57    27    28 1   
    58    27    68 1   
    59    27    69 1   
    60    28    29 1   
    61    28    70 1   
    62    28    71 1   
    63    29    72 1   
    64    29    73 1   
    65    30    31 1   
    66    30    74 1   
    67    30    75 1   
    68    31    32 1   
    69    31    76 1   
    70    32    33 2   
    71    32    34 1   
    72    34    35 1   
    73    34    36 1   
    74    34    77 1   
    75    35    78 1   
    76    35    79 1   
    77    35    80 1   
    78    36    37 1   
    79    36    81 1   
    80    36    82 1   
    81    37    38 1   
    82    37    41 1   
    83    38    39 2   
    84    38    83 1   
    85    39    40 1   
    86    40    41 2   
    87    40    84 1   
    88    41    85 1   
@<TRIPOS>SUBSTRUCTURE
     1 H9P         1 TEMP              0 ****  ****    0 ROOT
