@<TRIPOS>MOLECULE
H9R
   52    55     1     0     0
SMALL
bcc


@<TRIPOS>ATOM
      1 C4          83.3090    14.7860    49.5510 c6         1 H9R       0.121100
      2 C5          83.1290    14.2380    50.9760 c6         1 H9R       0.113100
      3 C6          81.9920    13.2410    51.0570 c3         1 H9R       0.148400
      4 C3          84.5350    15.6870    49.4990 c6         1 H9R       0.152100
      5 C1          85.4170    14.4370    51.4670 c6         1 H9R       0.194400
      6 C2          85.7480    14.9600    50.0640 c6         1 H9R       0.076100
      7 CAA         92.1550    11.0730    55.0460 ca         1 H9R      -0.135000
      8 CAB         93.2500    10.6470    55.7700 ca         1 H9R       0.035100
      9 CAD         93.5540     9.2780    55.8460 ca         1 H9R       0.153100
     10 CAF         92.7390     8.3670    55.1910 ca         1 H9R      -0.151000
     11 CAG         91.6450     8.7960    54.4600 ca         1 H9R      -0.080000
     12 CAH         91.3440    10.1530    54.3720 ca         1 H9R      -0.085800
     13 CAI         90.2050    10.6120    53.5800 cc         1 H9R       0.225900
     14 CAK         89.6450     9.9460    52.5430 cd         1 H9R      -0.330200
     15 CAL         88.5270    10.4960    51.8270 c          1 H9R       0.615900
     16 CAN         88.0780    11.7930    52.2810 ca         1 H9R      -0.391600
     17 CAO         86.9960    12.4650    51.6590 ca         1 H9R       0.305100
     18 CAQ         88.7200    12.4150    53.3480 ca         1 H9R       0.253100
     19 CAR         88.3370    13.6550    53.8130 ca         1 H9R      -0.328000
     20 CAS         87.2670    14.2910    53.1880 ca         1 H9R       0.261100
     21 CAU         86.5730    13.7150    52.1090 ca         1 H9R      -0.221300
     22 O2          86.8100    15.8850    50.1040 oh         1 H9R      -0.600800
     23 O3          84.7400    16.0850    48.1670 oh         1 H9R      -0.587800
     24 O4          82.1900    15.5490    49.1610 oh         1 H9R      -0.581800
     25 O5          84.2990    13.5820    51.4130 os         1 H9R      -0.373600
     26 O6          81.8000    12.8720    52.4010 oh         1 H9R      -0.581800
     27 OAE         94.6110     8.8290    56.5390 oh         1 H9R      -0.485100
     28 OAJ         89.7530    11.8120    53.9730 os         1 H9R      -0.218200
     29 OAP         86.3900    11.8890    50.6310 oh         1 H9R      -0.489100
     30 OAT         86.8570    15.4930    53.6050 oh         1 H9R      -0.474100
     31 H1          83.4720    13.9400    48.8680 h1         1 H9R       0.054700
     32 H2          82.9010    15.0890    51.6410 h1         1 H9R       0.060700
     33 H3          81.0920    13.7050    50.6380 h1         1 H9R       0.025200
     34 H4          82.2340    12.3760    50.4240 h1         1 H9R       0.025200
     35 H5          84.3360    16.5610    50.1440 h1         1 H9R       0.054700
     36 H6          85.1670    15.3150    52.0790 h1         1 H9R       0.063700
     37 H7          85.9840    14.1160    49.4030 h1         1 H9R       0.063700
     38 H8          91.9480    12.1360    54.9930 ha         1 H9R       0.145000
     39 H9          92.9640     7.3100    55.2640 ha         1 H9R       0.158000
     40 H10         91.0180     8.0580    53.9780 ha         1 H9R       0.147000
     41 H11         90.0540     8.9980    52.2250 ha         1 H9R       0.170000
     42 H12         88.8580    14.1190    54.6420 ha         1 H9R       0.154000
     43 H13         87.6400    15.4000    50.1450 ho         1 H9R       0.412000
     44 H14         85.5390    16.6210    48.1410 ho         1 H9R       0.418000
     45 H15         81.5630    14.9790    48.7090 ho         1 H9R       0.406000
     46 H16         81.0320    12.2960    52.4450 ho         1 H9R       0.402000
     47 H17         93.8220    12.3930    56.3430 ho         1 H9R       0.441000
     48 H18         95.0950     9.5610    56.9410 ho         1 H9R       0.450000
     49 H19         86.8430    11.0190    50.4690 ho         1 H9R       0.489000
     50 H20         87.3770    15.7970    54.3590 ho         1 H9R       0.437000
     51 OAM         87.9870     9.9110    50.8730 o          1 H9R      -0.596100
     52 OAC         94.0870    11.4700    56.4360 oh         1 H9R      -0.517100
@<TRIPOS>BOND
     1     1     2 1   
     2     1     4 1   
     3     1    24 1   
     4     1    31 1   
     5     2     3 1   
     6     2    25 1   
     7     2    32 1   
     8     3    26 1   
     9     3    33 1   
    10     3    34 1   
    11     4     6 1   
    12     4    23 1   
    13     4    35 1   
    14     5     6 1   
    15     5    21 1   
    16     5    25 1   
    17     5    36 1   
    18     6    22 1   
    19     6    37 1   
    20     7     8 ar  
    21     7    12 ar  
    22     7    38 1   
    23     8     9 ar  
    24     8    52 1   
    25     9    10 ar  
    26     9    27 1   
    27    10    11 ar  
    28    10    39 1   
    29    11    12 ar  
    30    11    40 1   
    31    12    13 1   
    32    13    14 2   
    33    13    28 1   
    34    14    15 1   
    35    14    41 1   
    36    15    16 1   
    37    15    51 2   
    38    16    17 ar  
    39    16    18 ar  
    40    17    21 ar  
    41    17    29 1   
    42    18    19 ar  
    43    18    28 1   
    44    19    20 ar  
    45    19    42 1   
    46    20    21 ar  
    47    20    30 1   
    48    22    43 1   
    49    23    44 1   
    50    24    45 1   
    51    26    46 1   
    52    27    48 1   
    53    29    49 1   
    54    30    50 1   
    55    47    52 1   
@<TRIPOS>SUBSTRUCTURE
     1 H9R         1 TEMP              0 ****  ****    0 ROOT
