@<TRIPOS>MOLECULE
H9R
   52    55     1     0     0
SMALL
No Charge or Current Charge


@<TRIPOS>ATOM
      1 C4          83.1120    14.6160    49.5530 c6         1 H9R       0.144300
      2 C5          83.0000    14.1560    51.0410 c6         1 H9R       0.136300
      3 C6          81.8890    13.0740    51.2480 c3         1 H9R       0.171600
      4 C3          84.2890    15.6280    49.4170 c6         1 H9R       0.175300
      5 C1          85.3820    14.5240    51.4240 c6         1 H9R       0.217600
      6 C2          85.6090    15.0030    49.9490 c6         1 H9R       0.099300
      7 CAA         92.4160    10.9960    55.0210 ca         1 H9R      -0.117000
      8 CAB         93.4220    10.4040    55.8050 ca         1 H9R       0.035100
      9 CAD         93.4230     9.0090    56.0060 ca         1 H9R       0.153100
     10 CAF         92.4230     8.2130    55.4310 ca         1 H9R      -0.133000
     11 CAG         91.4180     8.8060    54.6470 ca         1 H9R      -0.062000
     12 CAH         91.4070    10.2030    54.4290 ca         1 H9R      -0.085800
     13 CAI         90.3580    10.8310    53.6180 cc         1 H9R       0.225900
     14 CAK         89.8730    10.1980    52.4980 cd         1 H9R      -0.380200
     15 CAL         88.8240    10.7550    51.6810 c          1 H9R       0.615900
     16 CAN         88.2600    12.0260    52.1660 ca         1 H9R      -0.391600
     17 CAO         87.1400    12.6310    51.5640 ca         1 H9R       0.305100
     18 CAQ         88.8730    12.6280    53.2710 ca         1 H9R       0.253100
     19 CAR         88.3700    13.8380    53.7550 ca         1 H9R      -0.310000
     20 CAS         87.2550    14.4400    53.1680 ca         1 H9R       0.261100
     21 CAU         86.6200    13.8480    52.0600 ca         1 H9R      -0.221300
     22 O2          86.6900    15.9600    49.8440 oh         1 H9R      -0.723000
     23 O3          84.4570    16.0390    48.0500 oh         1 H9R      -0.650000
     24 O4          81.8910    15.2170    49.0800 oh         1 H9R      -0.704000
     25 O5          84.2680    13.6020    51.4830 os         1 H9R      -0.420000
     26 O6          81.7970    12.6050    52.6080 oh         1 H9R      -0.704000
     27 OAE         94.4020     8.4420    56.7680 oh         1 H9R      -0.524100
     28 OAJ         90.0050    12.1380    53.9040 os         1 H9R      -0.218200
     29 OAP         86.5720    12.0260    50.4880 oh         1 H9R      -0.528100
     30 OAT         86.8120    15.6180    53.6870 oh         1 H9R      -0.513100
     31 H1          83.3500    13.7320    48.9420 h1         1 H9R       0.054700
     32 H2          82.7540    15.0230    51.6710 h1         1 H9R       0.060700
     33 H3          80.9270    13.5030    50.9400 h1         1 H9R       0.025200
     34 H4          82.1010    12.2330    50.5750 h1         1 H9R       0.025200
     35 H5          84.0580    16.5060    50.0390 h1         1 H9R       0.054700
     36 H6          85.0990    15.4060    52.0150 h1         1 H9R       0.063700
     37 H7          85.8340    14.1250    49.3270 h1         1 H9R       0.063700
     38 H8          92.4180    12.0730    54.8630 ha         1 H9R       0.127000
     39 H9          92.4240     7.1390    55.5950 ha         1 H9R       0.140000
     40 H10         90.6400     8.1760    54.2220 ha         1 H9R       0.129000
     41 H11         90.2320     9.2320    52.1700 ha         1 H9R       0.220000
     42 H12         88.8630    14.3070    54.6030 ha         1 H9R       0.136000
     43 H13         87.4830    15.5470    50.2600 ho         1 H9R       0.511000
     44 H14         85.3740    16.3980    48.0140 ho         1 H9R       0.457000
     45 H15         82.1500    15.7170    48.2680 ho         1 H9R       0.505000
     46 H16         81.1230    11.8870    52.6180 ho         1 H9R       0.501000
     47 H17         94.2510    12.1190    56.1340 ho         1 H9R       0.480000
     48 H18         94.9770     9.1860    57.0590 ho         1 H9R       0.489000
     49 H19         87.1180    11.2150    50.3260 ho         1 H9R       0.528000
     50 H20         87.3820    15.8460    54.4490 ho         1 H9R       0.476000
     51 OAM         88.4100    10.1950    50.6750 o          1 H9R      -0.596100
     52 OAC         94.4030    11.1770    56.3730 oh         1 H9R      -0.556100
@<TRIPOS>BOND
     1     1     2 1   
     2     1     4 1   
     3     1    24 1   
     4     1    31 1   
     5     2     3 1   
     6     2    25 1   
     7     2    32 1   
     8     3    26 1   
     9     3    33 1   
    10     3    34 1   
    11     4     6 1   
    12     4    23 1   
    13     4    35 1   
    14     5     6 1   
    15     5    21 1   
    16     5    25 1   
    17     5    36 1   
    18     6    22 1   
    19     6    37 1   
    20     7     8 ar  
    21     7    12 ar  
    22     7    38 1   
    23     8     9 ar  
    24     8    52 1   
    25     9    10 ar  
    26     9    27 1   
    27    10    11 ar  
    28    10    39 1   
    29    11    12 ar  
    30    11    40 1   
    31    12    13 1   
    32    13    14 2   
    33    13    28 1   
    34    14    15 1   
    35    14    41 1   
    36    15    16 1   
    37    15    51 2   
    38    16    17 ar  
    39    16    18 ar  
    40    17    21 ar  
    41    17    29 1   
    42    18    19 ar  
    43    18    28 1   
    44    19    20 ar  
    45    19    42 1   
    46    20    21 ar  
    47    20    30 1   
    48    22    43 1   
    49    23    44 1   
    50    24    45 1   
    51    26    46 1   
    52    27    48 1   
    53    29    49 1   
    54    30    50 1   
    55    47    52 1   
@<TRIPOS>SUBSTRUCTURE
     1 H9R         1 TEMP              0 ****  ****    0 ROOT
