@<TRIPOS>MOLECULE
H9S
   89    92     1     0     0
SMALL
abcg2


@<TRIPOS>ATOM
      1 C12          1.0400    -0.8200   -33.6120 c3         1 H9S      -0.019400
      2 C16         -2.2830     1.2860   -44.9290 c3         1 H9S       0.079700
      3 C15         -1.7520    -0.2050   -43.0350 c          1 H9S       0.576100
      4 C14          0.2940    -1.9830   -32.9590 c3         1 H9S      -0.085100
      5 C13          0.4630     0.5240   -33.1650 c3         1 H9S      -0.085100
      6 C11          2.3270    -1.0880   -37.1890 ca         1 H9S      -0.053000
      7 C10          2.2700    -0.9980   -35.8110 ca         1 H9S      -0.110000
      8 O1          -1.6160    -1.2170   -43.7050 o          1 H9S      -0.594100
      9 C8          -0.1380    -0.9610   -35.8360 ca         1 H9S      -0.070000
     10 C5          -0.1990    -1.2060   -39.6580 cc         1 H9S       0.396200
     11 C4          -0.6070    -1.3110   -41.0880 c3         1 H9S      -0.101700
     12 C6           1.1360    -1.1190   -37.9100 ca         1 H9S       0.087400
     13 N1           1.0280    -1.2020   -39.2780 nd         1 H9S      -0.535100
     14 C2          -3.7480     0.5010   -40.5410 c          1 H9S       0.604100
     15 O2           0.1330    -0.2170   -46.6530 o          1 H9S      -0.599100
     16 C18          0.6600     0.2860   -45.6680 c          1 H9S       0.609300
     17 C19          1.8690    -0.2780   -45.0200 ce         1 H9S      -0.307200
     18 C20          2.4040    -1.4270   -45.4260 c2         1 H9S      -0.119200
     19 C21          3.5950    -2.0740   -44.7950 c3         1 H9S       0.188000
     20 N4           4.5400    -2.5150   -45.8160 n3         1 H9S      -0.716600
     21 C25          5.9200    -2.5870   -45.3580 c6         1 H9S       0.128800
     22 C24          6.1940    -3.8090   -44.4960 c6         1 H9S       0.115600
     23 O3           5.8440    -4.9970   -45.1780 os         1 H9S      -0.447000
     24 C23          4.4860    -4.9850   -45.5700 c6         1 H9S       0.115600
     25 C22          4.1750    -3.7790   -46.4450 c6         1 H9S       0.128800
     26 C17         -1.0490     2.0330   -45.4650 c3         1 H9S       0.092000
     27 C26         -3.5870     2.0650   -45.1400 c6         1 H9S      -0.066700
     28 C31         -4.7870     1.2970   -44.5810 c6         1 H9S      -0.071400
     29 C30         -6.0970     2.0450   -44.8000 c6         1 H9S      -0.073900
     30 C29         -6.3190     2.3580   -46.2740 c6         1 H9S      -0.074400
     31 C28         -5.1340     3.1250   -46.8460 c6         1 H9S      -0.073900
     32 C27         -3.8190     2.3850   -46.6190 c6         1 H9S      -0.071400
     33 N2          -2.0840     0.9970   -43.5240 ns         1 H9S      -0.494900
     34 C3          -1.6070    -0.2390   -41.5090 c3         1 H9S       0.025700
     35 N           -2.9040    -0.4880   -40.9200 ns         1 H9S      -0.508900
     36 O           -3.4460     1.6820   -40.6060 o          1 H9S      -0.606100
     37 C1          -5.0760     0.0290   -39.9920 c3         1 H9S      -0.154400
     38 C           -6.2280     0.9470   -40.3720 c3         1 H9S      -0.081100
     39 S           -1.3820    -1.1040   -38.3670 ss         1 H9S       0.017800
     40 C7          -0.0840    -1.0570   -37.2200 ca         1 H9S      -0.178000
     41 C9           1.0520    -0.9340   -35.1190 ca         1 H9S      -0.059300
     42 H13          2.0800    -0.8620   -33.2760 hc         1 H9S       0.050700
     43 H1          -2.3640     0.3290   -45.4470 h1         1 H9S       0.100700
     44 H17          0.3450    -1.9050   -31.8720 hc         1 H9S       0.036533
     45 H19         -0.7600    -1.9900   -33.2390 hc         1 H9S       0.036533
     46 H18          0.7250    -2.9420   -33.2470 hc         1 H9S       0.036533
     47 H16          0.5160     0.6230   -32.0800 hc         1 H9S       0.036533
     48 H15          1.0120     1.3570   -33.6050 hc         1 H9S       0.036533
     49 H14         -0.5850     0.6230   -33.4550 hc         1 H9S       0.036533
     50 H12          3.2760    -1.1350   -37.7070 ha         1 H9S       0.131000
     51 H11          3.1930    -0.9730   -35.2450 ha         1 H9S       0.116000
     52 H10         -1.0920    -0.9100   -35.3250 ha         1 H9S       0.124000
     53 H8          -1.0200    -2.3050   -41.2860 hc         1 H9S       0.087700
     54 H9           0.3020    -1.2230   -41.6830 hc         1 H9S       0.087700
     55 H23          0.6280     1.7200   -44.2330 hn         1 H9S       0.308500
     56 H24          2.3040     0.2660   -44.1870 ha         1 H9S       0.171000
     57 H25          1.9420    -1.9510   -46.2580 ha         1 H9S       0.199000
     58 H27          3.2480    -2.8880   -44.1410 h1         1 H9S       0.044200
     59 H26          4.0930    -1.3550   -44.1410 h1         1 H9S       0.044200
     60 H34          6.5670    -2.6210   -46.2420 h1         1 H9S       0.063950
     61 H35          6.1740    -1.6760   -44.8120 h1         1 H9S       0.063950
     62 H33          5.6450    -3.7350   -43.5450 h1         1 H9S       0.048200
     63 H32          7.2580    -3.8760   -44.2550 h1         1 H9S       0.048200
     64 H31          3.8340    -4.9940   -44.6850 h1         1 H9S       0.048200
     65 H30          4.2980    -5.9090   -46.1210 h1         1 H9S       0.048200
     66 H28          4.7280    -3.8640   -47.3860 h1         1 H9S       0.063950
     67 H29          3.1150    -3.7790   -46.7060 h1         1 H9S       0.063950
     68 H22         -1.0400     3.0520   -45.0740 h1         1 H9S       0.058200
     69 H21         -1.0970     2.1050   -46.5510 h1         1 H9S       0.058200
     70 H36         -3.5040     3.0180   -44.5960 hc         1 H9S       0.045700
     71 H45         -4.8410     0.3190   -45.0750 hc         1 H9S       0.043700
     72 H46         -4.6530     1.0980   -43.5160 hc         1 H9S       0.043700
     73 H44         -6.0790     2.9790   -44.2270 hc         1 H9S       0.038700
     74 H43         -6.9290     1.4580   -44.4040 hc         1 H9S       0.038700
     75 H41         -7.2420     2.9280   -46.4100 hc         1 H9S       0.039700
     76 H42         -6.4470     1.4210   -46.8260 hc         1 H9S       0.039700
     77 H39         -5.0770     4.1100   -46.3700 hc         1 H9S       0.038700
     78 H40         -5.2750     3.3060   -47.9140 hc         1 H9S       0.038700
     79 H37         -3.8220     1.4480   -47.1890 hc         1 H9S       0.043700
     80 H38         -3.0010     2.9870   -47.0200 hc         1 H9S       0.043700
     81 H20         -2.1560     1.7690   -42.8780 hn         1 H9S       0.325500
     82 H           -1.2600     0.7330   -41.1540 h1         1 H9S       0.091700
     83 H7          -3.2650    -1.4280   -40.9870 hn         1 H9S       0.322500
     84 H5          -4.9750    -0.0130   -38.9030 hc         1 H9S       0.060200
     85 H6          -5.2820    -0.9930   -40.3160 hc         1 H9S       0.060200
     86 H2          -7.1590     0.5780   -39.9450 hc         1 H9S       0.044367
     87 H3          -6.0720     1.9600   -40.0050 hc         1 H9S       0.044367
     88 H4          -6.3560     0.9970   -41.4540 hc         1 H9S       0.044367
     89 N3           0.1920     1.4070   -45.0840 ns         1 H9S      -0.502900
@<TRIPOS>BOND
     1     1     4 1   
     2     1     5 1   
     3     1    41 1   
     4     1    42 1   
     5     2    26 1   
     6     2    27 1   
     7     2    33 1   
     8     2    43 1   
     9     3     8 2   
    10     3    33 1   
    11     3    34 1   
    12     4    44 1   
    13     4    45 1   
    14     4    46 1   
    15     5    47 1   
    16     5    48 1   
    17     5    49 1   
    18     6     7 ar  
    19     6    12 ar  
    20     6    50 1   
    21     7    41 ar  
    22     7    51 1   
    23     9    40 ar  
    24     9    41 ar  
    25     9    52 1   
    26    10    11 1   
    27    10    13 2   
    28    10    39 1   
    29    11    34 1   
    30    11    53 1   
    31    11    54 1   
    32    12    13 1   
    33    12    40 ar  
    34    14    35 1   
    35    14    36 2   
    36    14    37 1   
    37    15    16 2   
    38    16    17 1   
    39    16    89 1   
    40    17    18 2   
    41    17    56 1   
    42    18    19 1   
    43    18    57 1   
    44    19    20 1   
    45    19    58 1   
    46    19    59 1   
    47    20    21 1   
    48    20    25 1   
    49    21    22 1   
    50    21    60 1   
    51    21    61 1   
    52    22    23 1   
    53    22    62 1   
    54    22    63 1   
    55    23    24 1   
    56    24    25 1   
    57    24    64 1   
    58    24    65 1   
    59    25    66 1   
    60    25    67 1   
    61    26    68 1   
    62    26    69 1   
    63    26    89 1   
    64    27    28 1   
    65    27    32 1   
    66    27    70 1   
    67    28    29 1   
    68    28    71 1   
    69    28    72 1   
    70    29    30 1   
    71    29    73 1   
    72    29    74 1   
    73    30    31 1   
    74    30    75 1   
    75    30    76 1   
    76    31    32 1   
    77    31    77 1   
    78    31    78 1   
    79    32    79 1   
    80    32    80 1   
    81    33    81 1   
    82    34    35 1   
    83    34    82 1   
    84    35    83 1   
    85    37    38 1   
    86    37    84 1   
    87    37    85 1   
    88    38    86 1   
    89    38    87 1   
    90    38    88 1   
    91    39    40 1   
    92    55    89 1   
@<TRIPOS>SUBSTRUCTURE
     1 H9S         1 TEMP              0 ****  ****    0 ROOT
