@<TRIPOS>MOLECULE
H9S
   89    92     1     0     0
SMALL
No Charge or Current Charge


@<TRIPOS>ATOM
      1 C12          2.1650    -0.8950   -34.6880 c3         1 H9S      -0.019400
      2 C16         -2.3120     1.5520   -45.5070 c3         1 H9S       0.079700
      3 C15         -2.6850     0.2520   -43.3680 c          1 H9S       0.576100
      4 C14          3.3330    -1.8940   -34.8460 c3         1 H9S      -0.085100
      5 C13          1.0150    -1.4900   -33.8450 c3         1 H9S      -0.085100
      6 C11          1.3050     1.4440   -37.6280 ca         1 H9S      -0.053000
      7 C10          1.7620     0.9740   -36.3790 ca         1 H9S      -0.110000
      8 O1          -3.3700    -0.6070   -43.9100 o          1 H9S      -0.594100
      9 C8           1.1040    -1.2940   -36.9830 ca         1 H9S      -0.070000
     10 C5          -0.1880    -0.2110   -40.3850 cc         1 H9S       0.396200
     11 C4          -0.7450    -0.2020   -41.7800 c3         1 H9S      -0.101700
     12 C6           0.7490     0.5390   -38.5450 ca         1 H9S       0.087400
     13 N1           0.2750     0.9020   -39.7990 nd         1 H9S      -0.535100
     14 C2          -3.5080    -0.7100   -39.8550 c          1 H9S       0.604100
     15 O2          -0.5430    -1.0430   -46.3810 o          1 H9S      -0.599100
     16 C18          0.1890    -0.4240   -45.6260 c          1 H9S       0.609300
     17 C19          1.1300    -1.0770   -44.6820 ce         1 H9S      -0.307200
     18 C20          1.0720    -2.3880   -44.3410 c2         1 H9S      -0.119200
     19 C21          1.9280    -3.0820   -43.2970 c3         1 H9S       0.188000
     20 N4           3.3210    -2.5680   -43.2480 n3         1 H9S      -0.716600
     21 C25          4.0860    -3.0560   -42.0560 c6         1 H9S       0.128800
     22 C24          4.5100    -4.5500   -42.2060 c6         1 H9S       0.115600
     23 O3           5.2670    -4.7340   -43.4280 os         1 H9S      -0.447000
     24 C23          4.5400    -4.3270   -44.6130 c6         1 H9S       0.115600
     25 C22          4.1120    -2.8320   -44.4970 c6         1 H9S       0.128800
     26 C17         -0.8900     1.8070   -46.0880 c3         1 H9S       0.092000
     27 C26         -3.3730     2.6400   -45.8910 c6         1 H9S      -0.066700
     28 C31         -4.7690     2.3540   -45.2540 c6         1 H9S      -0.071400
     29 C30         -5.8150     3.4300   -45.6390 c6         1 H9S      -0.073900
     30 C29         -5.9430     3.5630   -47.1740 c6         1 H9S      -0.074400
     31 C28         -4.5700     3.8680   -47.8150 c6         1 H9S      -0.073900
     32 C27         -3.5200     2.7940   -47.4360 c6         1 H9S      -0.071400
     33 N2          -2.2260     1.3640   -44.0470 ns         1 H9S      -0.494900
     34 C3          -2.2480     0.1680   -41.8780 c3         1 H9S       0.025700
     35 N           -3.0830    -0.8230   -41.1590 ns         1 H9S      -0.508900
     36 O           -3.2160     0.2450   -39.1520 o          1 H9S      -0.606100
     37 C1          -4.3430    -1.8870   -39.3410 c3         1 H9S      -0.154400
     38 C           -5.8350    -1.5130   -39.2080 c3         1 H9S      -0.081100
     39 S           -0.0610    -1.7520   -39.5020 ss         1 H9S       0.017800
     40 C7           0.6570    -0.7980   -38.2170 ca         1 H9S      -0.178000
     41 C9           1.6650    -0.3980   -36.0460 ca         1 H9S      -0.059300
     42 H13          2.5580    -0.0410   -34.1220 hc         1 H9S       0.050700
     43 H1          -2.6590     0.6070   -45.9480 h1         1 H9S       0.100700
     44 H17          3.7330    -2.1780   -33.8660 hc         1 H9S       0.036533
     45 H19          3.0080    -2.8070   -35.3600 hc         1 H9S       0.036533
     46 H18          4.1460    -1.4440   -35.4280 hc         1 H9S       0.036533
     47 H16          1.3720    -1.7660   -32.8460 hc         1 H9S       0.036533
     48 H15          0.2080    -0.7570   -33.7270 hc         1 H9S       0.036533
     49 H14          0.5990    -2.3870   -34.3190 hc         1 H9S       0.036533
     50 H12          1.3830     2.4980   -37.8790 ha         1 H9S       0.131000
     51 H11          2.1920     1.6800   -35.6720 ha         1 H9S       0.116000
     52 H10          1.0160    -2.3540   -36.7570 ha         1 H9S       0.124000
     53 H8          -0.5920    -1.1870   -42.2350 hc         1 H9S       0.087700
     54 H9          -0.1570     0.5010   -42.3810 hc         1 H9S       0.087700
     55 H23          0.7980     1.3570   -44.8450 hn         1 H9S       0.308500
     56 H24          1.8320    -0.4200   -44.1720 ha         1 H9S       0.171000
     57 H25          0.3390    -3.0490   -44.8070 ha         1 H9S       0.199000
     58 H27          1.9180    -4.1640   -43.4870 h1         1 H9S       0.044200
     59 H26          1.4480    -2.9310   -42.3200 h1         1 H9S       0.044200
     60 H34          4.9970    -2.4530   -41.9230 h1         1 H9S       0.063950
     61 H35          3.4950    -2.9360   -41.1350 h1         1 H9S       0.063950
     62 H33          3.6240    -5.2000   -42.2250 h1         1 H9S       0.048200
     63 H32          5.1320    -4.8490   -41.3510 h1         1 H9S       0.048200
     64 H31          3.6580    -4.9710   -44.7390 h1         1 H9S       0.048200
     65 H30          5.1860    -4.4620   -45.4920 h1         1 H9S       0.048200
     66 H28          5.0220    -2.2150   -44.4980 h1         1 H9S       0.063950
     67 H29          3.5440    -2.5470   -45.3950 h1         1 H9S       0.063950
     68 H22         -0.6060     2.8510   -45.8980 h1         1 H9S       0.058200
     69 H21         -0.8980     1.6520   -47.1740 h1         1 H9S       0.058200
     70 H36         -3.0010     3.5910   -45.4840 hc         1 H9S       0.045700
     71 H45         -5.1260     1.3650   -45.5710 hc         1 H9S       0.043700
     72 H46         -4.6930     2.3200   -44.1590 hc         1 H9S       0.043700
     73 H44         -5.5270     4.3970   -45.2060 hc         1 H9S       0.038700
     74 H43         -6.7900     3.1720   -45.2050 hc         1 H9S       0.038700
     75 H41         -6.6570     4.3610   -47.4210 hc         1 H9S       0.039700
     76 H42         -6.3520     2.6340   -47.5950 hc         1 H9S       0.039700
     77 H39         -4.2210     4.8580   -47.4890 hc         1 H9S       0.038700
     78 H40         -4.6730     3.9190   -48.9080 hc         1 H9S       0.038700
     79 H37         -3.8050     1.8300   -47.8810 hc         1 H9S       0.043700
     80 H38         -2.5600     3.0740   -47.8890 hc         1 H9S       0.043700
     81 H20         -1.6890     2.0360   -43.5120 hn         1 H9S       0.325500
     82 H           -2.4070     1.1620   -41.4390 h1         1 H9S       0.091700
     83 H7          -3.4140    -1.6310   -41.6770 hn         1 H9S       0.322500
     84 H5          -3.9710    -2.1770   -38.3510 hc         1 H9S       0.060200
     85 H6          -4.2620    -2.7370   -40.0300 hc         1 H9S       0.060200
     86 H2          -6.4140    -2.3680   -38.8380 hc         1 H9S       0.044367
     87 H3          -5.9660    -0.6810   -38.5040 hc         1 H9S       0.044367
     88 H4          -6.2480    -1.2120   -40.1780 hc         1 H9S       0.044367
     89 N3           0.1420     0.9420   -45.4950 ns         1 H9S      -0.502900
@<TRIPOS>BOND
     1     1     4 1   
     2     1     5 1   
     3     1    41 1   
     4     1    42 1   
     5     2    26 1   
     6     2    27 1   
     7     2    33 1   
     8     2    43 1   
     9     3     8 2   
    10     3    33 1   
    11     3    34 1   
    12     4    44 1   
    13     4    45 1   
    14     4    46 1   
    15     5    47 1   
    16     5    48 1   
    17     5    49 1   
    18     6     7 ar  
    19     6    12 ar  
    20     6    50 1   
    21     7    41 ar  
    22     7    51 1   
    23     9    40 ar  
    24     9    41 ar  
    25     9    52 1   
    26    10    11 1   
    27    10    13 2   
    28    10    39 1   
    29    11    34 1   
    30    11    53 1   
    31    11    54 1   
    32    12    13 1   
    33    12    40 ar  
    34    14    35 1   
    35    14    36 2   
    36    14    37 1   
    37    15    16 2   
    38    16    17 1   
    39    16    89 1   
    40    17    18 2   
    41    17    56 1   
    42    18    19 1   
    43    18    57 1   
    44    19    20 1   
    45    19    58 1   
    46    19    59 1   
    47    20    21 1   
    48    20    25 1   
    49    21    22 1   
    50    21    60 1   
    51    21    61 1   
    52    22    23 1   
    53    22    62 1   
    54    22    63 1   
    55    23    24 1   
    56    24    25 1   
    57    24    64 1   
    58    24    65 1   
    59    25    66 1   
    60    25    67 1   
    61    26    68 1   
    62    26    69 1   
    63    26    89 1   
    64    27    28 1   
    65    27    32 1   
    66    27    70 1   
    67    28    29 1   
    68    28    71 1   
    69    28    72 1   
    70    29    30 1   
    71    29    73 1   
    72    29    74 1   
    73    30    31 1   
    74    30    75 1   
    75    30    76 1   
    76    31    32 1   
    77    31    77 1   
    78    31    78 1   
    79    32    79 1   
    80    32    80 1   
    81    33    81 1   
    82    34    35 1   
    83    34    82 1   
    84    35    83 1   
    85    37    38 1   
    86    37    84 1   
    87    37    85 1   
    88    38    86 1   
    89    38    87 1   
    90    38    88 1   
    91    39    40 1   
    92    55    89 1   
@<TRIPOS>SUBSTRUCTURE
     1 H9S         1 TEMP              0 ****  ****    0 ROOT
