@<TRIPOS>MOLECULE
H9T
   25    26     1     0     0
SMALL
No Charge or Current Charge


@<TRIPOS>ATOM
      1 C1          62.1950   -14.5670   -39.5390 cx         1 H9T       0.087500
      2 C2          61.9930   -15.5640   -38.4170 cx         1 H9T       0.028500
      3 C3          60.5610   -16.0260   -38.0490 c6         1 H9T       0.144300
      4 C4          59.5060   -15.7560   -39.1710 c6         1 H9T       0.134300
      5 C5          59.6300   -14.3110   -39.7480 c6         1 H9T       0.176300
      6 C6          61.0160   -14.1120   -40.4310 c6         1 H9T      -0.052700
      7 O8          59.3960   -13.3350   -38.7170 oh         1 H9T      -0.726000
      8 O9          58.1820   -15.9930   -38.6560 oh         1 H9T      -0.673000
      9 O10         60.5760   -17.4280   -37.7160 oh         1 H9T      -0.732000
     10 C7          61.2060   -12.6590   -40.9560 c3         1 H9T       0.173600
     11 O11         62.3730   -12.5320   -41.7820 oh         1 H9T      -0.672000
     12 N1          62.7060   -15.9630   -39.6490 n5         1 H9T      -0.763400
     13 H1          62.9570   -13.7990   -39.3810 h1         1 H9T       0.114700
     14 H2          62.6300   -15.4360   -37.5390 h1         1 H9T       0.102700
     15 H3          60.2690   -15.4380   -37.1650 h1         1 H9T       0.057700
     16 H4          59.7040   -16.4580   -39.9970 h1         1 H9T       0.057700
     17 H5          58.8620   -14.2010   -40.5290 h1         1 H9T       0.056700
     18 H6          61.0250   -14.7440   -41.3290 hc         1 H9T       0.072700
     19 H7          58.5810   -13.6450   -38.2530 ho         1 H9T       0.519000
     20 H8          58.2500   -16.8420   -38.1600 ho         1 H9T       0.466000
     21 H9          61.3700   -17.5800   -37.1510 ho         1 H9T       0.513000
     22 H10         61.2730   -11.9760   -40.0980 h1         1 H9T       0.036200
     23 H11         60.3120   -12.3790   -41.5310 h1         1 H9T       0.036200
     24 H12         62.4100   -11.5960   -42.0850 ho         1 H9T       0.445000
     25 H13         62.0710   -16.5340   -40.2250 hn         1 H9T       0.398000
@<TRIPOS>BOND
     1     1     2 1   
     2     1     6 1   
     3     1    12 1   
     4     1    13 1   
     5     2     3 1   
     6     2    12 1   
     7     2    14 1   
     8     3     4 1   
     9     3     9 1   
    10     3    15 1   
    11     4     5 1   
    12     4     8 1   
    13     4    16 1   
    14     5     6 1   
    15     5     7 1   
    16     5    17 1   
    17     6    10 1   
    18     6    18 1   
    19     7    19 1   
    20     8    20 1   
    21     9    21 1   
    22    10    11 1   
    23    10    22 1   
    24    10    23 1   
    25    11    24 1   
    26    12    25 1   
@<TRIPOS>SUBSTRUCTURE
     1 H9T         1 TEMP              0 ****  ****    0 ROOT
