@<TRIPOS>MOLECULE
H9T
   25    26     1     0     0
SMALL
abcg2


@<TRIPOS>ATOM
      1 C1          62.1950   -14.5720   -39.6090 cx         1 H9T       0.087500
      2 C2          62.0090   -15.4970   -38.4640 cx         1 H9T       0.028500
      3 C3          60.6260   -15.9690   -38.0930 c6         1 H9T       0.144300
      4 C4          59.6000   -15.7860   -39.2040 c6         1 H9T       0.134300
      5 C5          59.6580   -14.3810   -39.7830 c6         1 H9T       0.176300
      6 C6          61.0070   -14.1270   -40.4550 c6         1 H9T      -0.052700
      7 O8          59.4530   -13.4030   -38.7590 oh         1 H9T      -0.726000
      8 O9          58.2800   -15.9910   -38.7000 oh         1 H9T      -0.673000
      9 O10         60.5960   -17.3630   -37.7450 oh         1 H9T      -0.732000
     10 C7          61.1370   -12.6690   -40.8730 c3         1 H9T       0.173600
     11 O11         62.2440   -12.5630   -41.7730 oh         1 H9T      -0.672000
     12 N1          62.6730   -15.9650   -39.6920 n5         1 H9T      -0.763400
     13 H1          63.0000   -13.8500   -39.5470 h1         1 H9T       0.114700
     14 H2          62.6800   -15.4110   -37.6150 h1         1 H9T       0.102700
     15 H3          60.2950   -15.3770   -37.2360 h1         1 H9T       0.057700
     16 H4          59.7990   -16.5050   -40.0080 h1         1 H9T       0.057700
     17 H5          58.8680   -14.2880   -40.5360 h1         1 H9T       0.056700
     18 H6          61.0070   -14.7170   -41.3780 hc         1 H9T       0.072700
     19 H7          58.6510   -13.6540   -38.2820 ho         1 H9T       0.519000
     20 H8          58.2980   -16.7880   -38.1520 ho         1 H9T       0.466000
     21 H9          60.9870   -17.4690   -36.8680 ho         1 H9T       0.513000
     22 H10         61.2970   -12.0360   -39.9960 h1         1 H9T       0.036200
     23 H11         60.2130   -12.3450   -41.3640 h1         1 H9T       0.036200
     24 H12         62.4510   -11.6290   -41.8900 ho         1 H9T       0.445000
     25 H13         62.0300   -16.5190   -40.2510 hn         1 H9T       0.398000
@<TRIPOS>BOND
     1     1     2 1   
     2     1     6 1   
     3     1    12 1   
     4     1    13 1   
     5     2     3 1   
     6     2    12 1   
     7     2    14 1   
     8     3     4 1   
     9     3     9 1   
    10     3    15 1   
    11     4     5 1   
    12     4     8 1   
    13     4    16 1   
    14     5     6 1   
    15     5     7 1   
    16     5    17 1   
    17     6    10 1   
    18     6    18 1   
    19     7    19 1   
    20     8    20 1   
    21     9    21 1   
    22    10    11 1   
    23    10    22 1   
    24    10    23 1   
    25    11    24 1   
    26    12    25 1   
@<TRIPOS>SUBSTRUCTURE
     1 H9T         1 TEMP              0 ****  ****    0 ROOT
