@<TRIPOS>MOLECULE
H9U
   90    91     1     0     0
SMALL
No Charge or Current Charge


@<TRIPOS>ATOM
      1 C22        -16.6010     4.6130    12.0550 c6         1 H9U       0.155300
      2 C24        -18.5680     4.5230    13.7220 c6         1 H9U       0.058700
      3 C26        -16.7280     3.0540    11.9400 c6         1 H9U       0.149300
      4 C28        -18.5950     2.9790    13.5220 c6         1 H9U       0.368300
      5 C23        -17.9830     5.2210    12.4520 c6         1 H9U       0.169300
      6 C25        -14.7380     5.3740    10.6450 c6         1 H9U       0.388300
      7 C27        -14.3360     5.3750     9.1360 c6         1 H9U       0.078700
      8 C29        -12.7940     5.5840     9.0700 c6         1 H9U       0.160300
      9 C30        -12.3750     6.8850     9.8150 c6         1 H9U       0.110300
     10 C31        -12.9220     6.8410    11.2790 c6         1 H9U       0.145300
     11 C32        -18.9720     7.5020    12.3700 c3         1 H9U       0.106300
     12 C33        -15.3770     2.3100    11.6710 c3         1 H9U       0.162600
     13 C34        -12.6410     8.1610    12.0740 c3         1 H9U       0.200600
     14 C36        -19.2650     8.5270    13.5060 c          1 H9U       0.598100
     15 C38        -18.6390     8.1710    11.0220 c3         1 H9U      -0.107100
     16 C39        -18.5180     9.2180    15.8430 c3         1 H9U       0.024700
     17 C40        -21.8260     5.6240    15.4920 c3         1 H9U      -0.180100
     18 C41        -16.0980     2.4990     7.2360 c3         1 H9U      -0.186100
     19 C42        -17.4500    10.3520    15.9630 c          1 H9U       0.565100
     20 C43        -15.7120    11.6750    14.6350 c3         1 H9U      -0.030300
     21 C44        -18.4710     8.2250    17.0250 c3         1 H9U      -0.092100
     22 C45        -15.0130    11.4520    13.2610 c          1 H9U       0.717000
     23 C46        -16.2290    13.1300    14.8160 c3         1 H9U      -0.046400
     24 C47        -15.1100    14.2020    14.7700 c3         1 H9U      -0.199400
     25 C48        -15.6980    15.5990    15.0360 c          1 H9U       0.717000
     26 N18        -19.9080     5.0400    14.1000 ns         1 H9U      -0.497900
     27 N19        -14.7310     4.1250     8.4360 ns         1 H9U      -0.495900
     28 N20        -18.3900     8.4700    14.5700 ns         1 H9U      -0.484900
     29 N21        -16.7890    10.6690    14.7930 ns         1 H9U      -0.441900
     30 O01        -16.1580     5.2050    10.8050 os         1 H9U      -0.432000
     31 O02        -17.2920     2.5020    13.1630 os         1 H9U      -0.475000
     32 O03        -14.3540     6.6210    11.2520 os         1 H9U      -0.429000
     33 O04        -17.8460     6.6450    12.6980 os         1 H9U      -0.448000
     34 O05        -19.4990     2.5810    12.4940 oh         1 H9U      -0.679000
     35 O06        -12.3230     5.6360     7.7150 oh         1 H9U      -0.657000
     36 O07        -10.9350     7.0380     9.7680 oh         1 H9U      -0.750000
     37 O08        -15.5040     0.8740    11.6710 oh         1 H9U      -0.716000
     38 O09        -13.1200     9.3470    11.4130 oh         1 H9U      -0.799000
     39 O10        -19.8040     4.6110    16.3310 o          1 H9U      -0.610100
     40 O11        -20.2000     9.3170    13.4730 o          1 H9U      -0.600100
     41 O12        -16.8260     4.7340     7.7700 o          1 H9U      -0.586100
     42 O15        -15.6530    11.6530    12.2390 o          1 H9U      -0.728000
     43 O16        -15.7700    15.9850    16.1930 o          1 H9U      -0.764000
     44 O17        -16.1070    16.2460    14.0840 o          1 H9U      -0.764000
     45 H1         -15.8810     4.8610    12.8490 h1         1 H9U       0.068700
     46 H2         -17.8820     4.7280    14.5560 h1         1 H9U       0.105700
     47 H3         -17.3950     2.8210    11.0980 h1         1 H9U       0.074700
     48 H4         -18.8950     2.5100    14.4730 h2         1 H9U       0.067700
     49 H5         -18.6680     5.0680    11.6050 h1         1 H9U       0.065700
     50 H6         -14.2080     4.5570    11.1520 h2         1 H9U      -0.006300
     51 H7         -14.8330     6.2270     8.6520 h1         1 H9U       0.126700
     52 H8         -12.3160     4.7340     9.5810 h1         1 H9U       0.017700
     53 H9         -12.8610     7.7310     9.3030 h1         1 H9U       0.092700
     54 H10        -12.4550     6.0070    11.8240 h1         1 H9U       0.016700
     55 H11        -19.8870     6.9100    12.2430 h1         1 H9U       0.025700
     56 H12        -14.6540     2.6240    12.4360 h1         1 H9U       0.029200
     57 H13        -14.9900     2.6340    10.6980 h1         1 H9U       0.029200
     58 H14        -11.5600     8.2410    12.2500 h1         1 H9U       0.025700
     59 H15        -13.1160     8.0670    13.0600 h1         1 H9U       0.025700
     60 H16        -19.4700     8.8050    10.6900 hc         1 H9U       0.066033
     61 H17        -17.7420     8.7950    11.1110 hc         1 H9U       0.066033
     62 H18        -18.4580     7.4140    10.2500 hc         1 H9U       0.066033
     63 H19        -19.4940     9.7190    15.8570 h1         1 H9U       0.066700
     64 H20        -22.2040     5.6050    16.5200 hc         1 H9U       0.061367
     65 H21        -21.8240     6.6410    15.0810 hc         1 H9U       0.061367
     66 H22        -22.4950     5.0950    14.8030 hc         1 H9U       0.061367
     67 H23        -17.0710     2.3500     6.7540 hc         1 H9U       0.053367
     68 H24        -15.2700     2.3130     6.5430 hc         1 H9U       0.053367
     69 H25        -15.9160     1.7540     8.0200 hc         1 H9U       0.053367
     70 H26        -14.9610    11.4800    15.4110 h1         1 H9U       0.059700
     71 H27        -18.6320     8.7450    17.9770 hc         1 H9U       0.039033
     72 H28        -19.2560     7.4660    16.9200 hc         1 H9U       0.039033
     73 H29        -17.5010     7.7160    17.0680 hc         1 H9U       0.039033
     74 H30        -16.9770    13.3500    14.0440 hc         1 H9U       0.030700
     75 H31        -16.7450    13.2130    15.7800 hc         1 H9U       0.030700
     76 H32        -14.4010    13.9310    15.5610 hc         1 H9U       0.030700
     77 H33        -14.6850    14.1590    13.7600 hc         1 H9U       0.030700
     78 H34        -20.5260     5.3560    13.3640 hn         1 H9U       0.319500
     79 H35        -14.0520     3.3760     8.3800 hn         1 H9U       0.294500
     80 H36        -17.6650     7.7630    14.4850 hn         1 H9U       0.332500
     81 H37        -17.0880    10.1640    13.9670 hn         1 H9U       0.311500
     82 H38        -19.3630     1.6150    12.4010 ho         1 H9U       0.449000
     83 H39        -11.4240     6.0310     7.7860 ho         1 H9U       0.454000
     84 H40        -10.7360     7.9730    10.0220 ho         1 H9U       0.535000
     85 H41        -14.5930     0.5020    11.6310 ho         1 H9U       0.492000
     86 H42        -13.4200     9.9820    12.1480 ho         1 H9U       0.608000
     87 C35        -20.4260     5.0420    15.3720 c          1 H9U       0.610100
     88 O13        -17.1710    10.8890    17.0290 o          1 H9U      -0.637100
     89 C37        -15.9440     3.8910     7.8330 c          1 H9U       0.610100
     90 O14        -13.9010    10.9420    13.2530 o          1 H9U      -0.728000
@<TRIPOS>BOND
     1     1     3 1   
     2     1     5 1   
     3     1    30 1   
     4     1    45 1   
     5     2     4 1   
     6     2     5 1   
     7     2    26 1   
     8     2    46 1   
     9     3    12 1   
    10     3    31 1   
    11     3    47 1   
    12     4    31 1   
    13     4    34 1   
    14     4    48 1   
    15     5    33 1   
    16     5    49 1   
    17     6     7 1   
    18     6    30 1   
    19     6    32 1   
    20     6    50 1   
    21     7     8 1   
    22     7    27 1   
    23     7    51 1   
    24     8     9 1   
    25     8    35 1   
    26     8    52 1   
    27     9    10 1   
    28     9    36 1   
    29     9    53 1   
    30    10    13 1   
    31    10    32 1   
    32    10    54 1   
    33    11    14 1   
    34    11    15 1   
    35    11    33 1   
    36    11    55 1   
    37    12    37 1   
    38    12    56 1   
    39    12    57 1   
    40    13    38 1   
    41    13    58 1   
    42    13    59 1   
    43    14    28 1   
    44    14    40 2   
    45    15    60 1   
    46    15    61 1   
    47    15    62 1   
    48    16    19 1   
    49    16    21 1   
    50    16    28 1   
    51    16    63 1   
    52    17    64 1   
    53    17    65 1   
    54    17    66 1   
    55    17    87 1   
    56    18    67 1   
    57    18    68 1   
    58    18    69 1   
    59    18    89 1   
    60    19    29 1   
    61    19    88 2   
    62    20    22 1   
    63    20    23 1   
    64    20    29 1   
    65    20    70 1   
    66    21    71 1   
    67    21    72 1   
    68    21    73 1   
    69    22    42 1   
    70    22    90 1   
    71    23    24 1   
    72    23    74 1   
    73    23    75 1   
    74    24    25 1   
    75    24    76 1   
    76    24    77 1   
    77    25    43 1   
    78    25    44 1   
    79    26    78 1   
    80    26    87 1   
    81    27    79 1   
    82    27    89 1   
    83    28    80 1   
    84    29    81 1   
    85    34    82 1   
    86    35    83 1   
    87    36    84 1   
    88    37    85 1   
    89    38    86 1   
    90    39    87 2   
    91    41    89 2   
@<TRIPOS>SUBSTRUCTURE
     1 H9U         1 TEMP              0 ****  ****    0 ROOT
