@<TRIPOS>MOLECULE
H9U
   90    91     1     0     0
SMALL
abcg2


@<TRIPOS>ATOM
      1 C22        -16.6880     4.3080    11.9960 c6         1 H9U       0.155300
      2 C24        -18.6440     4.3350    13.5660 c6         1 H9U       0.058700
      3 C26        -17.0080     2.8240    11.7500 c6         1 H9U       0.149300
      4 C28        -18.8950     2.8710    13.2090 c6         1 H9U       0.368300
      5 C23        -17.9510     5.0650    12.4100 c6         1 H9U       0.169300
      6 C25        -14.8840     5.2820    10.7420 c6         1 H9U       0.388300
      7 C27        -14.4370     5.2800     9.2730 c6         1 H9U       0.078700
      8 C29        -13.0350     5.8740     9.1660 c6         1 H9U       0.160300
      9 C30        -12.9920     7.2310     9.8540 c6         1 H9U       0.110300
     10 C31        -13.4810     7.0870    11.2970 c6         1 H9U       0.145300
     11 C32        -18.4510     7.4230    12.4530 c3         1 H9U       0.106300
     12 C33        -15.7580     1.9910    11.5520 c3         1 H9U       0.162600
     13 C34        -13.4790     8.3900    12.0730 c3         1 H9U       0.200600
     14 C36        -18.6140     8.3720    13.6380 c          1 H9U       0.598100
     15 C38        -17.9290     8.1820    11.2390 c3         1 H9U      -0.107100
     16 C39        -17.8580     8.8830    15.9200 c3         1 H9U       0.024700
     17 C40        -21.4730     6.0670    15.3920 c3         1 H9U      -0.180100
     18 C41        -15.3370     1.9840     7.6520 c3         1 H9U      -0.186100
     19 C42        -16.6390     9.7800    15.6850 c          1 H9U       0.565100
     20 C43        -15.9070    11.9490    14.8080 c3         1 H9U      -0.030300
     21 C44        -17.7080     8.0610    17.1870 c3         1 H9U      -0.092100
     22 C45        -15.5700    11.5570    13.3510 c          1 H9U       0.717000
     23 C46        -16.4180    13.3830    14.9050 c3         1 H9U      -0.046400
     24 C47        -15.4000    14.4010    14.4190 c3         1 H9U      -0.199400
     25 C48        -15.7500    15.8810    14.6840 c          1 H9U       0.717000
     26 N18        -19.8620     4.9960    13.9520 ns         1 H9U      -0.497900
     27 N19        -14.4650     3.9490     8.7270 ns         1 H9U      -0.495900
     28 N20        -17.9720     8.0210    14.7610 ns         1 H9U      -0.484900
     29 N21        -16.9160    11.0400    15.3290 ns         1 H9U      -0.441900
     30 O01        -16.2000     4.8670    10.7900 os         1 H9U      -0.432000
     31 O02        -17.6900     2.2580    12.8550 os         1 H9U      -0.475000
     32 O03        -14.7980     6.5700    11.2780 os         1 H9U      -0.429000
     33 O04        -17.5870     6.3640    12.8030 os         1 H9U      -0.448000
     34 O05        -19.8460     2.8330    12.1960 oh         1 H9U      -0.679000
     35 O06        -12.7010     5.9600     7.8050 oh         1 H9U      -0.657000
     36 O07        -11.6610     7.6910     9.7930 oh         1 H9U      -0.750000
     37 O08        -16.1390     0.7050    11.1240 oh         1 H9U      -0.716000
     38 O09        -14.1260     9.3930    11.3480 oh         1 H9U      -0.799000
     39 O10        -19.4480     5.0710    16.1750 o          1 H9U      -0.610100
     40 O11        -19.2950     9.3820    13.5260 o          1 H9U      -0.600100
     41 O12        -16.3620     4.1450     7.5070 o          1 H9U      -0.586100
     42 O15        -16.5200    11.4900    12.5600 o          1 H9U      -0.728000
     43 O16        -16.7940    16.1270    15.3180 o          1 H9U      -0.764000
     44 O17        -14.9350    16.7140    14.2360 o          1 H9U      -0.764000
     45 H1         -15.9450     4.3960    12.8010 h1         1 H9U       0.068700
     46 H2         -17.9770     4.3490    14.4310 h1         1 H9U       0.105700
     47 H3         -17.6220     2.7620    10.8410 h1         1 H9U       0.074700
     48 H4         -19.2370     2.3320    14.1000 h2         1 H9U       0.067700
     49 H5         -18.6230     5.1020    11.5410 h1         1 H9U       0.065700
     50 H6         -14.2290     4.6000    11.3170 h2         1 H9U      -0.006300
     51 H7         -15.1330     5.9020     8.7030 h1         1 H9U       0.126700
     52 H8         -12.3340     5.2050     9.6980 h1         1 H9U       0.017700
     53 H9         -13.6700     7.9070     9.3170 h1         1 H9U       0.092700
     54 H10        -12.8120     6.3900    11.8280 h1         1 H9U       0.016700
     55 H11        -19.4540     7.0480    12.2200 h1         1 H9U       0.025700
     56 H12        -15.1990     1.9620    12.4980 h1         1 H9U       0.029200
     57 H13        -15.1140     2.4740    10.8130 h1         1 H9U       0.029200
     58 H14        -12.4300     8.6400    12.2890 h1         1 H9U       0.025700
     59 H15        -13.9520     8.2030    13.0490 h1         1 H9U       0.025700
     60 H16        -18.6200     8.9740    10.9590 hc         1 H9U       0.066033
     61 H17        -16.9510     8.6230    11.4290 hc         1 H9U       0.066033
     62 H18        -17.8360     7.5030    10.3920 hc         1 H9U       0.066033
     63 H19        -18.7670     9.4830    15.9850 h1         1 H9U       0.066700
     64 H20        -22.0150     5.6760    16.2510 hc         1 H9U       0.061367
     65 H21        -21.2530     7.1170    15.5930 hc         1 H9U       0.061367
     66 H22        -22.1200     6.0210    14.5170 hc         1 H9U       0.061367
     67 H23        -15.7740     1.7550     6.6830 hc         1 H9U       0.053367
     68 H24        -14.3090     1.6230     7.6730 hc         1 H9U       0.053367
     69 H25        -15.8950     1.4330     8.4130 hc         1 H9U       0.053367
     70 H26        -15.0140    11.8520    15.4280 h1         1 H9U       0.059700
     71 H27        -17.6220     8.7140    18.0550 hc         1 H9U       0.039033
     72 H28        -18.5770     7.4200    17.3260 hc         1 H9U       0.039033
     73 H29        -16.8190     7.4310    17.1480 hc         1 H9U       0.039033
     74 H30        -17.3460    13.4730    14.3310 hc         1 H9U       0.030700
     75 H31        -16.6760    13.5870    15.9460 hc         1 H9U       0.030700
     76 H32        -14.4280    14.1990    14.8840 hc         1 H9U       0.030700
     77 H33        -15.2280    14.2840    13.3440 hc         1 H9U       0.030700
     78 H34        -20.5570     5.1470    13.2380 hn         1 H9U       0.319500
     79 H35        -13.7480     3.3110     9.0380 hn         1 H9U       0.294500
     80 H36        -17.3840     7.2010    14.7220 hn         1 H9U       0.332500
     81 H37        -17.8790    11.2710    15.1400 hn         1 H9U       0.311500
     82 H38        -20.1820     1.9340    12.1040 ho         1 H9U       0.449000
     83 H39        -11.8330     6.3720     7.7430 ho         1 H9U       0.454000
     84 H40        -11.6640     8.6500     9.8680 ho         1 H9U       0.535000
     85 H41        -15.3410     0.1830    11.0010 ho         1 H9U       0.492000
     86 H42        -14.2060    10.1910    11.9350 ho         1 H9U       0.608000
     87 C35        -20.1720     5.3240    15.2240 c          1 H9U       0.610100
     88 O13        -15.5050     9.3310    15.7830 o          1 H9U      -0.637100
     89 C37        -15.4470     3.4620     7.9380 c          1 H9U       0.610100
     90 O14        -14.3570    11.3360    13.0910 o          1 H9U      -0.728000
@<TRIPOS>BOND
     1     1     3 1   
     2     1     5 1   
     3     1    30 1   
     4     1    45 1   
     5     2     4 1   
     6     2     5 1   
     7     2    26 1   
     8     2    46 1   
     9     3    12 1   
    10     3    31 1   
    11     3    47 1   
    12     4    31 1   
    13     4    34 1   
    14     4    48 1   
    15     5    33 1   
    16     5    49 1   
    17     6     7 1   
    18     6    30 1   
    19     6    32 1   
    20     6    50 1   
    21     7     8 1   
    22     7    27 1   
    23     7    51 1   
    24     8     9 1   
    25     8    35 1   
    26     8    52 1   
    27     9    10 1   
    28     9    36 1   
    29     9    53 1   
    30    10    13 1   
    31    10    32 1   
    32    10    54 1   
    33    11    14 1   
    34    11    15 1   
    35    11    33 1   
    36    11    55 1   
    37    12    37 1   
    38    12    56 1   
    39    12    57 1   
    40    13    38 1   
    41    13    58 1   
    42    13    59 1   
    43    14    28 1   
    44    14    40 2   
    45    15    60 1   
    46    15    61 1   
    47    15    62 1   
    48    16    19 1   
    49    16    21 1   
    50    16    28 1   
    51    16    63 1   
    52    17    64 1   
    53    17    65 1   
    54    17    66 1   
    55    17    87 1   
    56    18    67 1   
    57    18    68 1   
    58    18    69 1   
    59    18    89 1   
    60    19    29 1   
    61    19    88 2   
    62    20    22 1   
    63    20    23 1   
    64    20    29 1   
    65    20    70 1   
    66    21    71 1   
    67    21    72 1   
    68    21    73 1   
    69    22    42 1   
    70    22    90 1   
    71    23    24 1   
    72    23    74 1   
    73    23    75 1   
    74    24    25 1   
    75    24    76 1   
    76    24    77 1   
    77    25    43 1   
    78    25    44 1   
    79    26    78 1   
    80    26    87 1   
    81    27    79 1   
    82    27    89 1   
    83    28    80 1   
    84    29    81 1   
    85    34    82 1   
    86    35    83 1   
    87    36    84 1   
    88    37    85 1   
    89    38    86 1   
    90    39    87 2   
    91    41    89 2   
@<TRIPOS>SUBSTRUCTURE
     1 H9U         1 TEMP              0 ****  ****    0 ROOT
