@<TRIPOS>MOLECULE
H9V
   35    37     1     0     0
SMALL
No Charge or Current Charge


@<TRIPOS>ATOM
      1 C1          -1.4880    -0.0660     0.9240 ca         1 H9V      -0.101500
      2 N2          -6.7850    -2.1720     0.5990 n1         1 H9V      -0.440000
      3 C3          -1.3130    -0.8080    -1.3800 ca         1 H9V      -0.101500
      4 C4           0.0870    -0.7080    -1.3050 ca         1 H9V      -0.083500
      5 C5           0.7270    -0.2860    -0.1160 cp         1 H9V      -0.029000
      6 C6          -0.0880     0.0340     0.9950 ca         1 H9V      -0.083500
      7 C8           2.8470     1.0070     0.4280 ca         1 H9V       0.219500
      8 C9           4.2440     1.1090     0.5000 ca         1 H9V      -0.169000
      9 C10          5.0460     0.0290     0.1100 ca         1 H9V       0.169000
     10 C11          4.4540    -1.1520    -0.3530 ca         1 H9V      -0.169000
     11 C12          3.0570    -1.2540    -0.4270 ca         1 H9V       0.219500
     12 C13         -3.6450    -0.6050    -0.3930 cy         1 H9V      -0.027400
     13 C14         -4.4490     0.7480    -0.4550 cy         1 H9V       0.123500
     14 C15         -4.4750    -0.9100     0.9110 cy         1 H9V       0.221600
     15 C16         -3.7300     2.0290    -0.9400 c3         1 H9V       0.197600
     16 C17         -5.7600    -1.6350     0.7450 c1         1 H9V       0.264900
     17 C2          -2.1150    -0.4920    -0.2670 ca         1 H9V      -0.073300
     18 C7           2.2180    -0.1770    -0.0380 cp         1 H9V      -0.126000
     19 F2           2.1070     2.0780     0.7920 f          1 H9V      -0.161000
     20 F3          -4.5930     3.0740    -0.8490 f          1 H9V      -0.269000
     21 N1          -4.6580     0.5860     1.0290 n6         1 H9V      -0.847400
     22 Cl1          6.7970     0.1570     0.2010 cl         1 H9V      -0.175000
     23 H1          -2.0770     0.1970     1.7980 ha         1 H9V       0.124500
     24 H2          -1.7730    -1.1310    -2.3110 ha         1 H9V       0.124500
     25 H3           0.6830    -0.9510    -2.1810 ha         1 H9V       0.122000
     26 H4           0.3730     0.3580     1.9260 ha         1 H9V       0.122000
     27 H5           4.7030     2.0270     0.8550 ha         1 H9V       0.154000
     28 H6           5.0740    -1.9920    -0.6520 ha         1 H9V       0.154000
     29 H7          -3.9110    -1.2780    -1.2150 hc         1 H9V       0.079700
     30 H8          -5.3690     0.6270    -1.0430 h1         1 H9V       0.058700
     31 H9          -3.9030    -1.4020     1.7080 h1         1 H9V       0.107700
     32 H10         -2.8510     2.2280    -0.3140 h1         1 H9V       0.058700
     33 H11         -3.4210     1.9040    -1.9850 h1         1 H9V       0.058700
     34 H12         -5.5460     0.9160     1.4310 hn         1 H9V       0.440000
     35 F1           2.5210    -2.4180    -0.8590 f          1 H9V      -0.161000
@<TRIPOS>BOND
     1     1     6 ar  
     2     1    17 ar  
     3     1    23 1   
     4     2    16 3   
     5     3     4 ar  
     6     3    17 ar  
     7     3    24 1   
     8     4     5 ar  
     9     4    25 1   
    10     5     6 ar  
    11     5    18 1   
    12     6    26 1   
    13     7     8 ar  
    14     7    18 ar  
    15     7    19 1   
    16     8     9 ar  
    17     8    27 1   
    18     9    10 ar  
    19     9    22 1   
    20    10    11 ar  
    21    10    28 1   
    22    11    18 ar  
    23    11    35 1   
    24    12    13 1   
    25    12    14 1   
    26    12    17 1   
    27    12    29 1   
    28    13    15 1   
    29    13    21 1   
    30    13    30 1   
    31    14    16 1   
    32    14    21 1   
    33    14    31 1   
    34    15    20 1   
    35    15    32 1   
    36    15    33 1   
    37    21    34 1   
@<TRIPOS>SUBSTRUCTURE
     1 H9V         1 TEMP              0 ****  ****    0 ROOT
