@<TRIPOS>MOLECULE
H9V
   35    37     1     0     0
SMALL
abcg2


@<TRIPOS>ATOM
      1 C1          -1.5040    -0.0430     0.8580 ca         1 H9V      -0.101500
      2 N2          -6.4590    -2.4250     0.3840 n1         1 H9V      -0.440000
      3 C3          -1.3160    -0.8160    -1.3980 ca         1 H9V      -0.101500
      4 C4           0.0660    -0.7290    -1.3180 ca         1 H9V      -0.083500
      5 C5           0.6770    -0.2940    -0.1460 cp         1 H9V      -0.029000
      6 C6          -0.1240     0.0450     0.9420 ca         1 H9V      -0.083500
      7 C8           2.7900     1.0200     0.1730 ca         1 H9V       0.219500
      8 C9           4.1610     1.1570     0.2570 ca         1 H9V      -0.169000
      9 C10          4.9310     0.0160     0.0990 ca         1 H9V       0.169000
     10 C11          4.3590    -1.2240    -0.1340 ca         1 H9V      -0.169000
     11 C12          2.9820    -1.2900    -0.2070 ca         1 H9V       0.219500
     12 C13         -3.6110    -0.5420    -0.4610 cy         1 H9V      -0.027400
     13 C14         -4.3870     0.8020    -0.3950 cy         1 H9V       0.123500
     14 C15         -4.3890    -0.8940     0.8380 cy         1 H9V       0.221600
     15 C16         -3.6300     2.0750    -0.6500 c3         1 H9V       0.197600
     16 C17         -5.5410    -1.7580     0.5780 c1         1 H9V       0.264900
     17 C2          -2.1210    -0.4710    -0.3170 ca         1 H9V      -0.073300
     18 C7           2.1480    -0.1890    -0.0590 cp         1 H9V      -0.126000
     19 F2           2.0390     2.1150     0.3120 f          1 H9V      -0.161000
     20 F3          -4.5010     3.1550    -0.5160 f          1 H9V      -0.269000
     21 N1          -4.7130     0.5190     1.0070 n6         1 H9V      -0.847400
     22 CL1          6.6490     0.1430     0.1960 cl         1 H9V      -0.175000
     23 H1          -2.0990     0.2420     1.7180 ha         1 H9V       0.124500
     24 H2          -1.7720    -1.1570    -2.3190 ha         1 H9V       0.124500
     25 H3           0.6650    -0.9900    -2.1810 ha         1 H9V       0.122000
     26 H4           0.3290     0.3720     1.8690 ha         1 H9V       0.122000
     27 H5           4.6070     2.1260     0.4340 ha         1 H9V       0.154000
     28 H6           4.9600    -2.1140    -0.2540 ha         1 H9V       0.154000
     29 H7          -3.8700    -1.1540    -1.3230 hc         1 H9V       0.079700
     30 H8          -5.2550     0.7620    -1.0630 h1         1 H9V       0.058700
     31 H9          -3.8110    -1.3410     1.6510 h1         1 H9V       0.107700
     32 H10         -2.8160     2.2080     0.0600 h1         1 H9V       0.058700
     33 H11         -3.2260     2.0790    -1.6650 h1         1 H9V       0.058700
     34 H12         -5.6490     0.7440     1.3190 hn         1 H9V       0.440000
     35 F1           2.4180    -2.4810    -0.4200 f          1 H9V      -0.161000
@<TRIPOS>BOND
     1     1     6 ar  
     2     1    17 ar  
     3     1    23 1   
     4     2    16 3   
     5     3     4 ar  
     6     3    17 ar  
     7     3    24 1   
     8     4     5 ar  
     9     4    25 1   
    10     5     6 ar  
    11     5    18 1   
    12     6    26 1   
    13     7     8 ar  
    14     7    18 ar  
    15     7    19 1   
    16     8     9 ar  
    17     8    27 1   
    18     9    10 ar  
    19     9    22 1   
    20    10    11 ar  
    21    10    28 1   
    22    11    18 ar  
    23    11    35 1   
    24    12    13 1   
    25    12    14 1   
    26    12    17 1   
    27    12    29 1   
    28    13    15 1   
    29    13    21 1   
    30    13    30 1   
    31    14    16 1   
    32    14    21 1   
    33    14    31 1   
    34    15    20 1   
    35    15    32 1   
    36    15    33 1   
    37    21    34 1   
@<TRIPOS>SUBSTRUCTURE
     1 H9V         1 TEMP              0 ****  ****    0 ROOT
