@<TRIPOS>MOLECULE
H9Y
   45    48     1     0     0
SMALL
No Charge or Current Charge


@<TRIPOS>ATOM
      1 N19        193.3460   -29.8340   145.9500 n1         1 H9Y      -0.449000
      2 C16        193.6440   -28.8630   145.3730 cg         1 H9Y       0.313700
      3 C00        199.4670   -26.1100   140.7840 ca         1 H9Y      -0.230000
      4 C01        200.6970   -25.5130   141.0830 ca         1 H9Y       0.211000
      5 C02        200.8960   -24.8720   142.3090 ca         1 H9Y      -0.172000
      6 C03        199.8500   -24.8140   143.2430 ca         1 H9Y      -0.044000
      7 C04        198.5940   -25.3840   142.9600 ca         1 H9Y       0.032100
      8 C05        198.4020   -26.0650   141.7140 ca         1 H9Y       0.163100
      9 C0C        196.3600   -25.1250   143.4750 cc         1 H9Y       0.223100
     10 C0D        196.8000   -27.0040   140.0750 c3         1 H9Y       0.140600
     11 C0E        195.3730   -27.5880   140.1120 c3         1 H9Y       0.112000
     12 C0K        195.0930   -30.0040   139.5130 c          1 H9Y       0.615000
     13 C0N        195.1630   -31.7570   141.2160 c          1 H9Y       0.587200
     14 C0O        195.4160   -30.7070   142.1970 cc         1 H9Y      -0.370200
     15 C0P        195.4950   -29.3830   141.8360 cd         1 H9Y       0.012600
     16 C0V        195.3350   -26.0280   143.8320 cc         1 H9Y      -0.161000
     17 C0X        193.7080   -24.8720   142.4980 cc         1 H9Y      -0.214000
     18 C0Y        194.7160   -23.9580   142.1840 cd         1 H9Y       0.189000
     19 C0Z        196.0670   -24.0550   142.6720 cd         1 H9Y      -0.262000
     20 C10        195.3540   -27.1570   144.6790 cc         1 H9Y      -0.155000
     21 C11        193.2160   -26.9260   143.8230 cd         1 H9Y      -0.184100
     22 C14        194.0280   -27.6970   144.6500 cc         1 H9Y      -0.026700
     23 F07        201.7050   -25.5720   140.1870 f          1 H9Y      -0.174000
     24 F13        194.4430   -22.9190   141.3780 f          1 H9Y      -0.168000
     25 N0H        195.3190   -29.0220   140.5050 n          1 H9Y      -0.310000
     26 N0M        195.0280   -31.2920   139.9480 ns         1 H9Y      -0.465500
     27 N0W        194.0590   -25.9210   143.3600 na         1 H9Y       0.171100
     28 O0A        197.6360   -25.2380   143.9640 os         1 H9Y      -0.217200
     29 O0B        197.2090   -26.7060   141.4260 os         1 H9Y      -0.347100
     30 O0S        195.0820   -32.9420   141.4860 o          1 H9Y      -0.520000
     31 H1         199.3680   -26.6200   139.8320 ha         1 H9Y       0.142000
     32 H2         201.8590   -24.4190   142.5350 ha         1 H9Y       0.146000
     33 H3         200.0070   -24.3080   144.1940 ha         1 H9Y       0.141000
     34 H4         197.4720   -27.7270   139.5960 h1         1 H9Y       0.062700
     35 H5         196.7910   -26.0850   139.4750 h1         1 H9Y       0.062700
     36 H6         194.7650   -27.0030   140.8130 h1         1 H9Y       0.076700
     37 H7         194.9180   -27.4530   139.1230 h1         1 H9Y       0.076700
     38 H8         195.5420   -31.0370   143.2220 ha         1 H9Y       0.225000
     39 H9         195.6960   -28.5560   142.5100 h4         1 H9Y       0.207000
     40 H10        192.6880   -24.8250   142.1440 h4         1 H9Y       0.165000
     41 H11        196.8170   -23.3210   142.4040 ha         1 H9Y       0.151000
     42 H12        196.2070   -27.5450   145.2330 ha         1 H9Y       0.229000
     43 H13        192.1700   -27.0100   143.5510 h4         1 H9Y       0.236000
     44 H14        194.8600   -31.9860   139.2380 hn         1 H9Y       0.344500
     45 O0Q        194.9590   -29.7450   138.3280 o          1 H9Y      -0.567000
@<TRIPOS>BOND
     1     1     2 3   
     2     2    22 1   
     3     3     4 ar  
     4     3     8 ar  
     5     3    31 1   
     6     4     5 ar  
     7     4    23 1   
     8     5     6 ar  
     9     5    32 1   
    10     6     7 ar  
    11     6    33 1   
    12     7     8 ar  
    13     7    28 1   
    14     8    29 1   
    15     9    16 1   
    16     9    19 2   
    17     9    28 1   
    18    10    11 1   
    19    10    29 1   
    20    10    34 1   
    21    10    35 1   
    22    11    25 1   
    23    11    36 1   
    24    11    37 1   
    25    12    25 1   
    26    12    26 1   
    27    12    45 2   
    28    13    14 1   
    29    13    26 1   
    30    13    30 2   
    31    14    15 2   
    32    14    38 1   
    33    15    25 1   
    34    15    39 1   
    35    16    20 2   
    36    16    27 1   
    37    17    18 2   
    38    17    27 1   
    39    17    40 1   
    40    18    19 1   
    41    18    24 1   
    42    19    41 1   
    43    20    22 1   
    44    20    42 1   
    45    21    22 2   
    46    21    27 1   
    47    21    43 1   
    48    26    44 1   
@<TRIPOS>SUBSTRUCTURE
     1 H9Y         1 TEMP              0 ****  ****    0 ROOT
