@<TRIPOS>MOLECULE
H9Y
   45    48     1     0     0
SMALL
abcg2


@<TRIPOS>ATOM
      1 N19        193.6510   -30.2440   146.7980 n1         1 H9Y      -0.449000
      2 C16        193.9150   -29.3340   146.1380 cg         1 H9Y       0.313700
      3 C00        199.5170   -25.5780   140.2980 ca         1 H9Y      -0.230000
      4 C01        200.5320   -24.8720   140.9220 ca         1 H9Y       0.211000
      5 C02        200.5740   -24.6360   142.2800 ca         1 H9Y      -0.172000
      6 C03        199.5360   -25.1480   143.0540 ca         1 H9Y      -0.044000
      7 C04        198.5100   -25.8600   142.4660 ca         1 H9Y       0.032100
      8 C05        198.4780   -26.0780   141.0800 ca         1 H9Y       0.163100
      9 C0C        196.2840   -25.9900   143.2850 cc         1 H9Y       0.223100
     10 C0D        197.4330   -27.2530   139.2630 c3         1 H9Y       0.140600
     11 C0E        196.0380   -27.7550   138.9450 c3         1 H9Y       0.112000
     12 C0K        195.9850   -29.9900   139.9450 c          1 H9Y       0.615000
     13 C0N        194.5380   -30.4350   141.9180 c          1 H9Y       0.587200
     14 C0O        194.0970   -29.0680   141.8290 cc         1 H9Y      -0.370200
     15 C0P        194.6020   -28.2640   140.8740 cd         1 H9Y       0.012600
     16 C0V        195.3900   -26.7730   144.0620 cc         1 H9Y      -0.161000
     17 C0X        193.5770   -25.2530   143.4650 cc         1 H9Y      -0.214000
     18 C0Y        194.4740   -24.5400   142.7500 cd         1 H9Y       0.189000
     19 C0Z        195.8440   -24.8750   142.6340 cd         1 H9Y      -0.262000
     20 C10        195.5310   -27.9270   144.8110 cc         1 H9Y      -0.155000
     21 C11        193.3470   -27.2560   144.8910 cd         1 H9Y      -0.184100
     22 C14        194.2480   -28.2250   145.3290 cc         1 H9Y      -0.026700
     23 F07        201.5350   -24.3930   140.1440 f          1 H9Y      -0.174000
     24 F13        194.0540   -23.4350   142.0960 f          1 H9Y      -0.168000
     25 N0H        195.5150   -28.6890   139.9450 n          1 H9Y      -0.310000
     26 N0M        195.4670   -30.7880   140.9390 ns         1 H9Y      -0.465500
     27 N0W        194.0450   -26.3760   144.1230 na         1 H9Y       0.171100
     28 O0A        197.5580   -26.4570   143.2800 os         1 H9Y      -0.217200
     29 O0B        197.4100   -26.7520   140.6030 os         1 H9Y      -0.347100
     30 O0S        194.1730   -31.2630   142.7470 o          1 H9Y      -0.520000
     31 H1         199.5500   -25.7250   139.2290 ha         1 H9Y       0.142000
     32 H2         201.3900   -24.0800   142.7200 ha         1 H9Y       0.146000
     33 H3         199.5250   -25.0060   144.1270 ha         1 H9Y       0.141000
     34 H4         198.1780   -28.0480   139.1910 h1         1 H9Y       0.062700
     35 H5         197.6770   -26.4630   138.5520 h1         1 H9Y       0.062700
     36 H6         195.3450   -26.9180   138.8990 h1         1 H9Y       0.076700
     37 H7         196.0540   -28.2450   137.9730 h1         1 H9Y       0.076700
     38 H8         193.3750   -28.7040   142.5420 ha         1 H9Y       0.225000
     39 H9         194.3080   -27.2290   140.7860 h4         1 H9Y       0.207000
     40 H10        192.5300   -25.0110   143.5550 h4         1 H9Y       0.165000
     41 H11        196.4980   -24.2590   142.0350 ha         1 H9Y       0.151000
     42 H12        196.4350   -28.4910   144.9570 ha         1 H9Y       0.229000
     43 H13        192.2930   -27.1410   145.0710 h4         1 H9Y       0.236000
     44 H14        195.8070   -31.7410   140.9520 hn         1 H9Y       0.344500
     45 O0Q        196.7960   -30.4010   139.1280 o          1 H9Y      -0.567000
@<TRIPOS>BOND
     1     1     2 3   
     2     2    22 1   
     3     3     4 ar  
     4     3     8 ar  
     5     3    31 1   
     6     4     5 ar  
     7     4    23 1   
     8     5     6 ar  
     9     5    32 1   
    10     6     7 ar  
    11     6    33 1   
    12     7     8 ar  
    13     7    28 1   
    14     8    29 1   
    15     9    16 1   
    16     9    19 2   
    17     9    28 1   
    18    10    11 1   
    19    10    29 1   
    20    10    34 1   
    21    10    35 1   
    22    11    25 1   
    23    11    36 1   
    24    11    37 1   
    25    12    25 1   
    26    12    26 1   
    27    12    45 2   
    28    13    14 1   
    29    13    26 1   
    30    13    30 2   
    31    14    15 2   
    32    14    38 1   
    33    15    25 1   
    34    15    39 1   
    35    16    20 2   
    36    16    27 1   
    37    17    18 2   
    38    17    27 1   
    39    17    40 1   
    40    18    19 1   
    41    18    24 1   
    42    19    41 1   
    43    20    22 1   
    44    20    42 1   
    45    21    22 2   
    46    21    27 1   
    47    21    43 1   
    48    26    44 1   
@<TRIPOS>SUBSTRUCTURE
     1 H9Y         1 TEMP              0 ****  ****    0 ROOT
