@<TRIPOS>MOLECULE
H9Z
   66    71     1     0     0
SMALL
abcg2


@<TRIPOS>ATOM
      1 CBJ         -4.2300    -1.8110     2.2560 c6         1 H9Z      -0.094400
      2 CBI         -4.8870    -2.2370     0.9500 c6         1 H9Z      -0.075400
      3 CBH         -3.9190    -3.0320     0.0870 c6         1 H9Z       0.161800
      4 NBG         -2.6880    -2.2920    -0.1410 n3         1 H9Z      -0.722600
      5 CBK         -1.8170    -2.9870    -1.0600 c3         1 H9Z       0.150100
      6 CBF         -2.0160    -1.9960     1.1090 c6         1 H9Z       0.143800
      7 CBE         -2.8960    -1.1140     1.9840 c6         1 H9Z       0.117700
      8 NBD         -3.0800     0.1530     1.2960 ns         1 H9Z      -0.485900
      9 CBB         -3.3890     1.2930     1.9130 c          1 H9Z       0.602700
     10 OBC         -3.5890     1.4050     3.1140 o          1 H9Z      -0.601100
     11 CAW         -3.4800     2.4940     1.0150 ca         1 H9Z      -0.121600
     12 CAX         -4.6960     3.1350     0.8250 ca         1 H9Z      -0.121000
     13 CAY         -4.7380     4.2530     0.0080 ca         1 H9Z       0.333900
     14 NAZ         -3.6650     4.7630    -0.5870 nb         1 H9Z      -0.650000
     15 CBA         -2.5000     4.1710    -0.3760 ca         1 H9Z       0.346900
     16 CAV         -2.3470     3.0350     0.4140 ca         1 H9Z       0.230000
     17 NAQ         -1.0660     2.4810     0.6030 nu         1 H9Z      -0.994000
     18 CAA         -0.5260     1.5620    -0.2590 ca         1 H9Z       0.340000
     19 CAB          0.6720     0.9080     0.1380 ca         1 H9Z      -0.159000
     20 CAF         -1.1020     1.2420    -1.4690 ca         1 H9Z      -0.181000
     21 CAE         -0.4810     0.3000    -2.3070 ca         1 H9Z       0.275000
     22 NAM         -1.0580     0.0040    -3.4960 nb         1 H9Z      -0.637000
     23 CAN         -0.4510    -0.8650    -4.2560 ca         1 H9Z       0.306900
     24 CAO          0.7650    -1.4720    -3.8820 ca         1 H9Z       0.269900
     25 NAP          1.3390    -1.2090    -2.7380 nb         1 H9Z      -0.608000
     26 CAD          0.7270    -0.3360    -1.9190 ca         1 H9Z       0.188000
     27 CAC          1.2940    -0.0250    -0.6460 cp         1 H9Z       0.047000
     28 CAG          2.5260    -0.6870    -0.1690 cp         1 H9Z      -0.026000
     29 CAH          3.5690     0.0860     0.3180 ca         1 H9Z      -0.108000
     30 CAI          4.7010    -0.5670     0.7980 ca         1 H9Z      -0.055200
     31 NAT          5.8550    -0.0480     1.3140 na         1 H9Z      -0.087700
     32 CAU          6.1250     1.3550     1.5070 c3         1 H9Z       0.064900
     33 CAS          6.6800    -1.0810     1.6590 cc         1 H9Z      -0.155100
     34 CAR          6.0890    -2.2790     1.3720 cd         1 H9Z      -0.242200
     35 CAJ          4.8110    -1.9740     0.8150 ca         1 H9Z      -0.086800
     36 CAK          3.7420    -2.7370     0.3300 ca         1 H9Z      -0.068000
     37 CAL          2.6240    -2.0950    -0.1570 ca         1 H9Z      -0.102000
     38 H1          -4.8870    -1.1560     2.8310 hc         1 H9Z       0.054700
     39 H2          -4.0360    -2.6880     2.8810 hc         1 H9Z       0.054700
     40 H3          -5.7740    -2.8410     1.1510 hc         1 H9Z       0.047700
     41 H4          -5.2260    -1.3580     0.3960 hc         1 H9Z       0.047700
     42 H5          -3.7110    -4.0050     0.5670 h1         1 H9Z       0.033200
     43 H6          -4.3760    -3.2520    -0.8810 h1         1 H9Z       0.033200
     44 H8          -2.3170    -3.1220    -2.0200 h1         1 H9Z       0.033367
     45 H9          -0.9150    -2.4000    -1.2340 h1         1 H9Z       0.033367
     46 H10         -1.5050    -3.9780    -0.6970 h1         1 H9Z       0.033367
     47 H11         -1.7580    -2.9100     1.6710 h1         1 H9Z       0.045700
     48 H12         -1.0780    -1.4790     0.8890 h1         1 H9Z       0.045700
     49 H13         -2.3780    -0.9200     2.9260 h1         1 H9Z       0.071700
     50 H14         -3.0070     0.1280     0.2880 hn         1 H9Z       0.344500
     51 H15         -5.6020     2.7660     1.2870 ha         1 H9Z       0.138000
     52 H16         -5.6790     4.7610    -0.1680 h4         1 H9Z       0.026100
     53 H17         -1.6260     4.6070    -0.8480 h4         1 H9Z       0.035100
     54 H18         -0.7070     2.4840     1.5450 hn         1 H9Z       0.501000
     55 H19          1.0860     1.1410     1.1130 ha         1 H9Z       0.122000
     56 H20         -2.0250     1.6980    -1.8040 ha         1 H9Z       0.141000
     57 H21         -0.9080    -1.1110    -5.2080 h4         1 H9Z       0.027100
     58 H22          1.2530    -2.1740    -4.5480 h4         1 H9Z       0.029100
     59 H23          3.5030     1.1680     0.3060 ha         1 H9Z       0.115000
     60 H24          5.4790     1.7800     2.2760 h1         1 H9Z       0.048367
     61 H25          7.1590     1.4810     1.8160 h1         1 H9Z       0.048367
     62 H26          5.9740     1.9090     0.5810 h1         1 H9Z       0.048367
     63 H27          7.6470    -0.8790     2.0940 h4         1 H9Z       0.210000
     64 H28          6.5160    -3.2550     1.5360 ha         1 H9Z       0.206000
     65 H29          3.7870    -3.8190     0.3380 ha         1 H9Z       0.115000
     66 H30          1.7930    -2.6840    -0.5210 ha         1 H9Z       0.115000
@<TRIPOS>BOND
     1     1     2 1   
     2     1     7 1   
     3     1    38 1   
     4     1    39 1   
     5     2     3 1   
     6     2    40 1   
     7     2    41 1   
     8     3     4 1   
     9     3    42 1   
    10     3    43 1   
    11     4     5 1   
    12     4     6 1   
    13     5    44 1   
    14     5    45 1   
    15     5    46 1   
    16     6     7 1   
    17     6    47 1   
    18     6    48 1   
    19     7     8 1   
    20     7    49 1   
    21     8     9 1   
    22     8    50 1   
    23     9    10 2   
    24     9    11 1   
    25    11    12 ar  
    26    11    16 ar  
    27    12    13 ar  
    28    12    51 1   
    29    13    14 ar  
    30    13    52 1   
    31    14    15 ar  
    32    15    16 ar  
    33    15    53 1   
    34    16    17 1   
    35    17    18 1   
    36    17    54 1   
    37    18    19 ar  
    38    18    20 ar  
    39    19    27 ar  
    40    19    55 1   
    41    20    21 ar  
    42    20    56 1   
    43    21    22 ar  
    44    21    26 ar  
    45    22    23 ar  
    46    23    24 ar  
    47    23    57 1   
    48    24    25 ar  
    49    24    58 1   
    50    25    26 ar  
    51    26    27 ar  
    52    27    28 1   
    53    28    29 ar  
    54    28    37 ar  
    55    29    30 ar  
    56    29    59 1   
    57    30    31 1   
    58    30    35 ar  
    59    31    32 1   
    60    31    33 1   
    61    32    60 1   
    62    32    61 1   
    63    32    62 1   
    64    33    34 2   
    65    33    63 1   
    66    34    35 1   
    67    34    64 1   
    68    35    36 ar  
    69    36    37 ar  
    70    36    65 1   
    71    37    66 1   
@<TRIPOS>SUBSTRUCTURE
     1 H9Z         1 TEMP              0 ****  ****    0 ROOT
