@<TRIPOS>MOLECULE
H9Z
   66    71     1     0     0
SMALL
No Charge or Current Charge


@<TRIPOS>ATOM
      1 CBJ         -4.0270    -2.0640     0.7520 c6         1 H9Z      -0.094400
      2 CBI         -2.8290    -2.2800    -0.2050 c6         1 H9Z      -0.075400
      3 CBH         -1.5640    -2.7350     0.5640 c6         1 H9Z       0.161800
      4 NBG         -1.2280    -1.8050     1.6740 n3         1 H9Z      -0.722600
      5 CBK          0.0300    -2.1740     2.3570 c3         1 H9Z       0.150100
      6 CBF         -2.3710    -1.6540     2.6230 c6         1 H9Z       0.143800
      7 CBE         -3.6520    -1.1150     1.9210 c6         1 H9Z       0.117700
      8 NBD         -3.4310     0.2620     1.4500 ns         1 H9Z      -0.485900
      9 CBB         -4.3890     1.2090     1.2070 c          1 H9Z       0.602700
     10 OBC         -5.5770     0.9290     1.3100 o          1 H9Z      -0.601100
     11 CAW         -3.9280     2.6110     0.8470 ca         1 H9Z      -0.121600
     12 CAX         -4.9150     3.6220     0.7190 ca         1 H9Z      -0.121000
     13 CAY         -4.5540     4.9510     0.4480 ca         1 H9Z       0.333900
     14 NAZ         -3.2730     5.3460     0.2970 nb         1 H9Z      -0.650000
     15 CBA         -2.3170     4.3910     0.4090 ca         1 H9Z       0.346900
     16 CAV         -2.5720     3.0120     0.6720 ca         1 H9Z       0.230000
     17 NAQ         -1.4860     2.1070     0.7150 nu         1 H9Z      -0.994000
     18 CAA         -0.9770     1.2640    -0.2730 ca         1 H9Z       0.340000
     19 CAB          0.2190     0.5840    -0.0480 ca         1 H9Z      -0.159000
     20 CAF         -1.6450     1.1090    -1.4870 ca         1 H9Z      -0.181000
     21 CAE         -1.1330     0.2740    -2.4890 ca         1 H9Z       0.275000
     22 NAM         -1.8280     0.1730    -3.6540 nb         1 H9Z      -0.637000
     23 CAN         -1.3000    -0.6370    -4.6060 ca         1 H9Z       0.306900
     24 CAO         -0.0890    -1.3380    -4.4050 ca         1 H9Z       0.269900
     25 NAP          0.6120    -1.2460    -3.2470 nb         1 H9Z      -0.608000
     26 CAD          0.0960    -0.4440    -2.2680 ca         1 H9Z       0.188000
     27 CAC          0.7720    -0.2860    -1.0180 cp         1 H9Z       0.047000
     28 CAG          2.0510    -1.0000    -0.6890 cp         1 H9Z      -0.026000
     29 CAH          3.1400    -0.2840    -0.1160 ca         1 H9Z      -0.108000
     30 CAI          4.3140    -0.9790     0.2140 ca         1 H9Z      -0.055200
     31 NAT          5.5000    -0.5170     0.7730 na         1 H9Z      -0.087700
     32 CAU          5.6990     0.8980     1.1240 c3         1 H9Z       0.064900
     33 CAS          6.4180    -1.5740     0.9350 cc         1 H9Z      -0.155100
     34 CAR          5.7420    -2.6870     0.4540 cd         1 H9Z      -0.242200
     35 CAJ          4.4230    -2.3240     0.0010 ca         1 H9Z      -0.086800
     36 CAK          3.3880    -3.0830    -0.5510 ca         1 H9Z      -0.068000
     37 CAL          2.1970    -2.4080    -0.8920 ca         1 H9Z      -0.102000
     38 H1          -4.8880    -1.6670     0.1980 hc         1 H9Z       0.054700
     39 H2          -4.3430    -3.0330     1.1620 hc         1 H9Z       0.054700
     40 H3          -3.0870    -3.0260    -0.9680 hc         1 H9Z       0.047700
     41 H4          -2.6160    -1.3500    -0.7430 hc         1 H9Z       0.047700
     42 H5          -1.7320    -3.7490     0.9580 h1         1 H9Z       0.033200
     43 H6          -0.7260    -2.8000    -0.1460 h1         1 H9Z       0.033200
     44 H8           0.8610    -2.2200     1.6420 h1         1 H9Z       0.033367
     45 H9           0.2870    -1.4310     3.1240 h1         1 H9Z       0.033367
     46 H10         -0.0610    -3.1540     2.8430 h1         1 H9Z       0.033367
     47 H11         -2.6040    -2.6220     3.0920 h1         1 H9Z       0.045700
     48 H12         -2.1020    -0.9640     3.4360 h1         1 H9Z       0.045700
     49 H13         -4.4730    -1.1000     2.6520 h1         1 H9Z       0.071700
     50 H14         -2.4730     0.5760     1.3100 hn         1 H9Z       0.344500
     51 H15         -5.9700     3.3910     0.8420 ha         1 H9Z       0.138000
     52 H16         -5.3150     5.7250     0.3560 h4         1 H9Z       0.026100
     53 H17         -1.2920     4.7340     0.2670 h4         1 H9Z       0.035100
     54 H18         -0.7710     2.3640     1.4040 hn         1 H9Z       0.501000
     55 H19          0.7210     0.7000     0.9070 ha         1 H9Z       0.122000
     56 H20         -2.5720     1.6410    -1.6670 ha         1 H9Z       0.141000
     57 H21         -1.8490    -0.7240    -5.5420 h4         1 H9Z       0.027100
     58 H22          0.3220    -1.9800    -5.1820 h4         1 H9Z       0.029100
     59 H23          3.0650     0.7870     0.0570 ha         1 H9Z       0.115000
     60 H24          4.9480     1.2030     1.8630 h1         1 H9Z       0.048367
     61 H25          6.7000     1.0380     1.5490 h1         1 H9Z       0.048367
     62 H26          5.5990     1.5180     0.2250 h1         1 H9Z       0.048367
     63 H27          7.4130    -1.4510     1.3530 h4         1 H9Z       0.210000
     64 H28          6.1550    -3.6940     0.4270 ha         1 H9Z       0.206000
     65 H29          3.4940    -4.1540    -0.7060 ha         1 H9Z       0.115000
     66 H30          1.3720    -2.9800    -1.3080 ha         1 H9Z       0.115000
@<TRIPOS>BOND
     1     1     2 1   
     2     1     7 1   
     3     1    38 1   
     4     1    39 1   
     5     2     3 1   
     6     2    40 1   
     7     2    41 1   
     8     3     4 1   
     9     3    42 1   
    10     3    43 1   
    11     4     5 1   
    12     4     6 1   
    13     5    44 1   
    14     5    45 1   
    15     5    46 1   
    16     6     7 1   
    17     6    47 1   
    18     6    48 1   
    19     7     8 1   
    20     7    49 1   
    21     8     9 1   
    22     8    50 1   
    23     9    10 2   
    24     9    11 1   
    25    11    12 ar  
    26    11    16 ar  
    27    12    13 ar  
    28    12    51 1   
    29    13    14 ar  
    30    13    52 1   
    31    14    15 ar  
    32    15    16 ar  
    33    15    53 1   
    34    16    17 1   
    35    17    18 1   
    36    17    54 1   
    37    18    19 ar  
    38    18    20 ar  
    39    19    27 ar  
    40    19    55 1   
    41    20    21 ar  
    42    20    56 1   
    43    21    22 ar  
    44    21    26 ar  
    45    22    23 ar  
    46    23    24 ar  
    47    23    57 1   
    48    24    25 ar  
    49    24    58 1   
    50    25    26 ar  
    51    26    27 ar  
    52    27    28 1   
    53    28    29 ar  
    54    28    37 ar  
    55    29    30 ar  
    56    29    59 1   
    57    30    31 1   
    58    30    35 ar  
    59    31    32 1   
    60    31    33 1   
    61    32    60 1   
    62    32    61 1   
    63    32    62 1   
    64    33    34 2   
    65    33    63 1   
    66    34    35 1   
    67    34    64 1   
    68    35    36 ar  
    69    36    37 ar  
    70    36    65 1   
    71    37    66 1   
@<TRIPOS>SUBSTRUCTURE
     1 H9Z         1 TEMP              0 ****  ****    0 ROOT
