@<TRIPOS>MOLECULE
HA0
   60    62     1     0     0
SMALL
No Charge or Current Charge


@<TRIPOS>ATOM
      1 C            0.6300     0.1380    -0.3010 c          1 HA0       0.615100
      2 N            0.6040     1.1240    -1.2690 ns         1 HA0      -0.462900
      3 O            0.2520     0.3440     0.8440 o          1 HA0      -0.619100
      4 C1           1.0530     3.4670    -1.9980 c          1 HA0       0.734000
      5 OXT          1.5590     4.4740    -1.5220 o          1 HA0      -0.734000
      6 N3          -2.3400     2.7180     1.0370 nc         1 HA0      -0.699000
      7 C4           0.4230    -1.5030    -2.3290 c5         1 HA0      -0.064400
      8 C5           0.3900    -2.4210    -0.1660 c5         1 HA0      -0.064400
      9 O6          -2.8500     1.0260    -0.4170 os         1 HA0      -0.251000
     10 CA           3.4400    -1.4870     0.3360 c3         1 HA0      -0.190700
     11 CB          -3.2010     1.8440     1.6430 cc         1 HA0       0.272900
     12 CD           7.2040    -2.6050     0.9800 c3         1 HA0      -0.084100
     13 CH          -1.2950     2.7820    -1.2370 c3         1 HA0      -0.108700
     14 C11          0.2270     2.5430    -1.0540 c3         1 HA0      -0.035300
     15 C17         -5.0180    -0.5960     2.1390 ca         1 HA0      -0.100000
     16 C20         -5.8370    -1.7280     2.2930 ca         1 HA0      -0.118000
     17 C21         -6.0090    -2.6240     1.2260 ca         1 HA0      -0.136000
     18 CA1          1.0800    -1.2410    -0.9250 c5         1 HA0      -0.118000
     19 CB1          4.9170    -1.8820     0.0430 c3         1 HA0      -0.044400
     20 CB2          3.3810    -0.2190     1.2240 c          1 HA0       0.713000
     21 CD2         -4.3610    -0.3470     0.9150 ca         1 HA0      -0.060500
     22 CE3         -4.5450    -1.2540    -0.1530 ca         1 HA0      -0.100000
     23 CG1         -1.0870    -1.6610    -1.9970 c5         1 HA0      -0.079900
     24 OG1          3.7610     0.8430     0.7510 o          1 HA0      -0.723000
     25 CG2         -1.1100    -2.2900    -0.5690 c5         1 HA0      -0.079900
     26 OG2          3.0040    -0.3440     2.3800 o          1 HA0      -0.723000
     27 CG3         -3.4980     0.8410     0.7610 cd         1 HA0       0.095500
     28 CH2          2.6360    -1.3540    -0.9960 c3         1 HA0      -0.033400
     29 O1           1.2320     3.1080    -3.1550 o          1 HA0      -0.734000
     30 CZ1         -2.1480     2.1710    -0.1600 cd         1 HA0       0.519300
     31 CZ3         -5.3630    -2.3860     0.0030 ca         1 HA0      -0.118000
     32 HN           0.9360     0.8600    -2.1900 hn         1 HA0       0.329500
     33 H4           0.6110    -0.7210    -3.0720 hc         1 HA0       0.039700
     34 H4A          0.8060    -2.4300    -2.7760 hc         1 HA0       0.039700
     35 H5           0.7940    -3.3900    -0.4860 hc         1 HA0       0.039700
     36 H5A          0.5280    -2.3710     0.9200 hc         1 HA0       0.039700
     37 HA           3.0130    -2.3190     0.9090 hc         1 HA0       0.024700
     38 HB          -3.5430     2.0040     2.6560 h4         1 HA0       0.021100
     39 HD           7.1940    -3.5370     0.4010 hc         1 HA0       0.008033
     40 HDA          7.7300    -1.8400     0.3970 hc         1 HA0       0.008033
     41 HDB          7.7680    -2.7820     1.9040 hc         1 HA0       0.008033
     42 HG           5.2810    -2.9210     1.9170 hc         1 HA0       0.051200
     43 HGA          5.8210    -1.2420     1.9200 hc         1 HA0       0.051200
     44 HH          -1.4810     3.8620    -1.2560 hc         1 HA0       0.064200
     45 HHA         -1.6060     2.4040    -2.2180 hc         1 HA0       0.064200
     46 H11          0.5060     2.8270    -0.0310 h1         1 HA0       0.101700
     47 H21         -6.6430    -3.5000     1.3470 ha         1 HA0       0.092000
     48 HB1          4.9270    -2.7880    -0.5760 hc         1 HA0       0.010200
     49 HB1A         5.3940    -1.0930    -0.5500 hc         1 HA0       0.010200
     50 HE3         -4.0550    -1.0880    -1.1090 ha         1 HA0       0.123000
     51 HG1         -1.5970    -0.6920    -2.0100 hc         1 HA0       0.027450
     52 HG1A        -1.5970    -2.2930    -2.7330 hc         1 HA0       0.027450
     53 HG2         -1.6150    -3.2620    -0.5560 hc         1 HA0       0.027450
     54 HG2A        -1.6520    -1.6460     0.1320 hc         1 HA0       0.027450
     55 HH2          3.0340    -0.5030    -1.5620 hc         1 HA0       0.027200
     56 HH2A         2.8770    -2.2360    -1.6030 hc         1 HA0       0.027200
     57 HZ3         -5.4960    -3.0780    -0.8250 ha         1 HA0       0.096500
     58 CG           5.7690    -2.1500     1.3070 c3         1 HA0      -0.073400
     59 H17         -4.8960     0.0840     2.9790 ha         1 HA0       0.123000
     60 H20         -6.3370    -1.9110     3.2420 ha         1 HA0       0.096500
@<TRIPOS>BOND
     1     1     2 1   
     2     1     3 2   
     3     1    18 1   
     4     2    14 1   
     5     2    32 1   
     6     4     5 1   
     7     4    14 1   
     8     4    29 1   
     9     6    11 1   
    10     6    30 2   
    11     7    18 1   
    12     7    23 1   
    13     7    33 1   
    14     7    34 1   
    15     8    18 1   
    16     8    25 1   
    17     8    35 1   
    18     8    36 1   
    19     9    27 1   
    20     9    30 1   
    21    10    19 1   
    22    10    20 1   
    23    10    28 1   
    24    10    37 1   
    25    11    27 2   
    26    11    38 1   
    27    12    39 1   
    28    12    40 1   
    29    12    41 1   
    30    12    58 1   
    31    13    14 1   
    32    13    30 1   
    33    13    44 1   
    34    13    45 1   
    35    14    46 1   
    36    15    16 ar  
    37    15    21 ar  
    38    15    59 1   
    39    16    17 ar  
    40    16    60 1   
    41    17    31 ar  
    42    17    47 1   
    43    18    28 1   
    44    19    48 1   
    45    19    49 1   
    46    19    58 1   
    47    20    24 1   
    48    20    26 1   
    49    21    22 ar  
    50    21    27 1   
    51    22    31 ar  
    52    22    50 1   
    53    23    25 1   
    54    23    51 1   
    55    23    52 1   
    56    25    53 1   
    57    25    54 1   
    58    28    55 1   
    59    28    56 1   
    60    31    57 1   
    61    42    58 1   
    62    43    58 1   
@<TRIPOS>SUBSTRUCTURE
     1 HA0         1 TEMP              0 ****  ****    0 ROOT
