@<TRIPOS>MOLECULE
HA0
   60    62     1     0     0
SMALL
bcc


@<TRIPOS>ATOM
      1 C            0.3810    -0.0280    -0.3090 c          1 HA0       0.682100
      2 N            0.4840     0.9370    -1.2410 ns         1 HA0      -0.529900
      3 O           -0.0270     0.1960     0.8220 o          1 HA0      -0.619100
      4 C1           1.4010     3.0940    -1.9250 c          1 HA0       0.944600
      5 OXT          1.5730     4.3020    -1.6850 o          1 HA0      -0.839300
      6 N3          -2.0510     2.7410     1.2510 nc         1 HA0      -0.699000
      7 C4           0.0850    -1.8190    -2.0690 c5         1 HA0      -0.064400
      8 C5           0.2660    -2.4920     0.1860 c5         1 HA0      -0.064400
      9 O6          -2.5580     1.3010    -0.3250 os         1 HA0      -0.339800
     10 CA           3.1790    -1.3720     0.3360 c3         1 HA0      -0.190700
     11 CB          -2.9410     1.8210     1.7500 cc         1 HA0       0.272900
     12 CD           6.9850    -2.2320     0.7630 c3         1 HA0      -0.084100
     13 CH          -0.9130     2.9720    -0.9550 c3         1 HA0      -0.108700
     14 C11          0.4930     2.3390    -0.9210 c3         1 HA0      -0.035300
     15 C17         -4.5040    -0.8730     1.8970 ca         1 HA0      -0.118000
     16 C20         -5.3150    -1.9940     1.8590 ca         1 HA0      -0.136000
     17 C21         -5.7390    -2.5110     0.6400 ca         1 HA0      -0.154000
     18 CA1          0.8110    -1.4250    -0.7680 c5         1 HA0      -0.118000
     19 CB1          4.6290    -1.7350    -0.0100 c3         1 HA0      -0.044400
     20 CB2          3.1520     0.0210     0.9950 c          1 HA0       0.923600
     21 CD2         -4.1080    -0.2410     0.7150 ca         1 HA0      -0.060500
     22 CE3         -4.5440    -0.7610    -0.5050 ca         1 HA0      -0.118000
     23 CG1         -1.3450    -2.1350    -1.6280 c5         1 HA0      -0.079900
     24 OG1          3.3310     1.0000     0.2420 o          1 HA0      -0.828300
     25 CG2         -1.2190    -2.6480    -0.1770 c5         1 HA0      -0.079900
     26 OG2          3.0150     0.0610     2.2360 o          1 HA0      -0.828300
     27 CG3         -3.2490     0.9260     0.7800 cd         1 HA0       0.139900
     28 CH2          2.3370    -1.4860    -0.9340 c3         1 HA0      -0.033400
     29 O1           1.8550     2.4430    -2.8860 o          1 HA0      -0.839300
     30 CZ1         -1.8430     2.3770     0.0300 cd         1 HA0       0.563700
     31 CZ3         -5.3500    -1.8890    -0.5380 ca         1 HA0      -0.136000
     32 HN           0.9970     0.7390    -2.0890 hn         1 HA0       0.329500
     33 H4           0.1300    -1.0690    -2.8600 hc         1 HA0       0.039700
     34 H4A          0.5690    -2.7180    -2.4630 hc         1 HA0       0.039700
     35 H5           0.7990    -3.4260    -0.0180 hc         1 HA0       0.039700
     36 H5A          0.4270    -2.2560     1.2370 hc         1 HA0       0.039700
     37 HA           2.8200    -2.1070     1.0650 hc         1 HA0       0.024700
     38 HB          -3.3130     1.8710     2.7620 h4         1 HA0       0.021100
     39 HD           6.9440    -3.2610     0.4010 hc         1 HA0       0.008033
     40 HDA          7.4100    -1.6220    -0.0370 hc         1 HA0       0.008033
     41 HDB          7.6820    -2.2040     1.6020 hc         1 HA0       0.008033
     42 HG           5.2070    -2.3480     1.9720 hc         1 HA0       0.051200
     43 HGA          5.6940    -0.7190     1.5690 hc         1 HA0       0.051200
     44 HH          -0.8120     4.0320    -0.7240 hc         1 HA0       0.064200
     45 HHA         -1.3300     2.8890    -1.9620 hc         1 HA0       0.064200
     46 H11          0.9040     2.4800     0.0810 h1         1 HA0       0.101700
     47 H21         -6.3670    -3.3920     0.6100 ha         1 HA0       0.110000
     48 HB1          4.6370    -2.7330    -0.4650 hc         1 HA0       0.010200
     49 HB1A         4.9930    -1.0520    -0.7860 hc         1 HA0       0.010200
     50 HE3         -4.2620    -0.2850    -1.4360 ha         1 HA0       0.141000
     51 HG1         -1.9540    -1.2300    -1.6540 hc         1 HA0       0.027450
     52 HG1A        -1.8290    -2.8550    -2.2900 hc         1 HA0       0.027450
     53 HG2         -1.5460    -3.6840    -0.0770 hc         1 HA0       0.027450
     54 HG2A        -1.8500    -2.0570     0.4870 hc         1 HA0       0.027450
     55 HH2          2.6640    -0.7230    -1.6460 hc         1 HA0       0.027200
     56 HH2A         2.5580    -2.4540    -1.3990 hc         1 HA0       0.027200
     57 HZ3         -5.6760    -2.2810    -1.4930 ha         1 HA0       0.114500
     58 CG           5.6040    -1.7280     1.1610 c3         1 HA0      -0.073400
     59 H17         -4.1620    -0.4940     2.8520 ha         1 HA0       0.141000
     60 H20         -5.6070    -2.4740     2.7840 ha         1 HA0       0.114500
@<TRIPOS>BOND
     1     1     2 1   
     2     1     3 2   
     3     1    18 1   
     4     2    14 1   
     5     2    32 1   
     6     4     5 1   
     7     4    14 1   
     8     4    29 1   
     9     6    11 1   
    10     6    30 2   
    11     7    18 1   
    12     7    23 1   
    13     7    33 1   
    14     7    34 1   
    15     8    18 1   
    16     8    25 1   
    17     8    35 1   
    18     8    36 1   
    19     9    27 1   
    20     9    30 1   
    21    10    19 1   
    22    10    20 1   
    23    10    28 1   
    24    10    37 1   
    25    11    27 2   
    26    11    38 1   
    27    12    39 1   
    28    12    40 1   
    29    12    41 1   
    30    12    58 1   
    31    13    14 1   
    32    13    30 1   
    33    13    44 1   
    34    13    45 1   
    35    14    46 1   
    36    15    16 ar  
    37    15    21 ar  
    38    15    59 1   
    39    16    17 ar  
    40    16    60 1   
    41    17    31 ar  
    42    17    47 1   
    43    18    28 1   
    44    19    48 1   
    45    19    49 1   
    46    19    58 1   
    47    20    24 1   
    48    20    26 1   
    49    21    22 ar  
    50    21    27 1   
    51    22    31 ar  
    52    22    50 1   
    53    23    25 1   
    54    23    51 1   
    55    23    52 1   
    56    25    53 1   
    57    25    54 1   
    58    28    55 1   
    59    28    56 1   
    60    31    57 1   
    61    42    58 1   
    62    43    58 1   
@<TRIPOS>SUBSTRUCTURE
     1 HA0         1 TEMP              0 ****  ****    0 ROOT
