@<TRIPOS>MOLECULE
HA1
   34    35     1     0     0
SMALL
bcc


@<TRIPOS>ATOM
      1 N9          -1.3110     0.6260    -2.5200 na         1 HA1      -0.173900
      2 C8          -2.4600     0.2250    -3.1460 cc         1 HA1       0.399400
      3 N7          -2.2520    -0.2990    -4.3170 nd         1 HA1      -0.623000
      4 C5          -0.8910    -0.2470    -4.4740 cd         1 HA1       0.141800
      5 C6          -0.0660    -0.6640    -5.5570 c          1 HA1       0.667000
      6 O6          -0.3910    -1.1790    -6.6150 o          1 HA1      -0.628500
      7 N1           1.2820    -0.4060    -5.2760 ns         1 HA1      -0.529400
      8 C2           1.7740     0.1640    -4.1360 cd         1 HA1       0.719800
      9 N2           3.1000     0.3580    -4.0790 nv         1 HA1      -0.944800
     10 N3           1.0120     0.5450    -3.1420 nc         1 HA1      -0.667100
     11 C4          -0.2920     0.3230    -3.3640 cc         1 HA1       0.124800
     12 C10         -1.1970     1.2110    -1.1990 c3         1 HA1       0.041300
     13 C11         -0.7500     0.2080    -0.1450 c3         1 HA1      -0.095400
     14 C12         -0.6620     0.8570     1.2300 c3         1 HA1      -0.071400
     15 C13         -0.1720    -0.1230     2.2900 c3         1 HA1      -0.116400
     16 C14         -0.0740     0.4380     3.6880 c3         1 HA1       0.306400
     17 F15          0.6980     1.5920     3.6470 f          1 HA1      -0.297800
     18 F16         -1.3310     0.8970     4.0640 f          1 HA1      -0.297800
     19 P            0.5980    -0.7270     5.0030 p5         1 HA1       1.120700
     20 O2P         -0.4070    -1.8770     4.9910 o          1 HA1      -0.910833
     21 O1P          0.5990     0.1120     6.2800 o          1 HA1      -0.910833
     22 O3P          1.9860    -1.0820     4.4700 o          1 HA1      -0.910833
     23 H8          -3.4240     0.3570    -2.6770 h5         1 HA1       0.057100
     24 HN1          1.9380    -0.6690    -6.0010 hn         1 HA1       0.308500
     25 HN21         3.4950     0.6340    -3.1960 hn         1 HA1       0.443800
     26 HN22         3.7210    -0.0950    -4.7270 hn         1 HA1       0.443800
     27 H101        -0.4960     2.0450    -1.2540 h1         1 HA1       0.057200
     28 H102        -2.1720     1.6270    -0.9430 h1         1 HA1       0.057200
     29 H111        -1.4530    -0.6290    -0.1210 hc         1 HA1       0.050200
     30 H112         0.2230    -0.2020    -0.4270 hc         1 HA1       0.050200
     31 H121         0.0130     1.7150     1.1760 hc         1 HA1       0.031200
     32 H122        -1.6450     1.2490     1.5060 hc         1 HA1       0.031200
     33 H131        -0.8310    -0.9940     2.3340 hc         1 HA1       0.062700
     34 H132         0.8150    -0.5060     2.0180 hc         1 HA1       0.062700
@<TRIPOS>BOND
     1     1     2 1   
     2     1    11 1   
     3     1    12 1   
     4     2     3 2   
     5     2    23 1   
     6     3     4 1   
     7     4     5 1   
     8     4    11 2   
     9     5     6 2   
    10     5     7 1   
    11     7     8 1   
    12     7    24 1   
    13     8     9 1   
    14     8    10 2   
    15     9    25 1   
    16     9    26 1   
    17    10    11 1   
    18    12    13 1   
    19    12    27 1   
    20    12    28 1   
    21    13    14 1   
    22    13    29 1   
    23    13    30 1   
    24    14    15 1   
    25    14    31 1   
    26    14    32 1   
    27    15    16 1   
    28    15    33 1   
    29    15    34 1   
    30    16    17 1   
    31    16    18 1   
    32    16    19 1   
    33    19    20 1   
    34    19    21 1   
    35    19    22 1   
@<TRIPOS>SUBSTRUCTURE
     1 HA1         1 TEMP              0 ****  ****    0 ROOT
