@<TRIPOS>MOLECULE
HA1
   34    35     1     0     0
SMALL
No Charge or Current Charge


@<TRIPOS>ATOM
      1 N9          -1.2190     0.5230    -2.5200 na         1 HA1      -0.152500
      2 C8          -2.3850    -0.0140    -3.0330 cc         1 HA1       0.399400
      3 N7          -2.1910    -0.5430    -4.2390 nd         1 HA1      -0.623000
      4 C5          -0.8420    -0.3380    -4.5130 cd         1 HA1       0.076500
      5 C6          -0.0170    -0.7020    -5.7040 c          1 HA1       0.524500
      6 O6          -0.4200    -1.2790    -6.7050 o          1 HA1      -0.553000
      7 N1           1.2850    -0.3150    -5.5670 ns         1 HA1      -0.462400
      8 C2           1.7590     0.3250    -4.4800 cd         1 HA1       0.719800
      9 N2           3.0430     0.6370    -4.4800 nv         1 HA1      -1.055200
     10 N3           1.0900     0.6740    -3.4070 nc         1 HA1      -0.667100
     11 C4          -0.2430     0.3150    -3.4620 cc         1 HA1       0.139400
     12 C10         -1.0650     1.1830    -1.2140 c3         1 HA1       0.070600
     13 C11         -0.7290     0.1930    -0.0790 c3         1 HA1      -0.095400
     14 C12         -0.5730     0.8840     1.2930 c3         1 HA1      -0.071400
     15 C13         -0.2370    -0.1090     2.4350 c3         1 HA1      -0.116400
     16 C14         -0.0710     0.5390     3.8390 c3         1 HA1      -0.094000
     17 F15          0.9130     1.4760     3.7840 f          1 HA1      -0.176500
     18 F16         -1.2140     1.1980     4.1650 f          1 HA1      -0.176500
     19 P            0.3380    -0.7290     5.1970 p5         1 HA1       1.278500
     20 O2P         -0.7620    -1.7370     5.2910 o          1 HA1      -0.910833
     21 O1P          0.4830    -0.0330     6.5130 o          1 HA1      -0.910833
     22 O3P          1.6190    -1.4250     4.8650 o          1 HA1      -0.910833
     23 H8          -3.3210     0.0120    -2.4880 h5         1 HA1       0.057100
     24 HN1          1.8970    -0.5120    -6.3420 hn         1 HA1       0.308500
     25 HN21         3.3870     0.9300    -3.5740 hn         1 HA1       0.499000
     26 HN22         3.6660     0.0350    -5.0040 hn         1 HA1       0.499000
     27 H101        -0.2690     1.9350    -1.2910 h1         1 HA1       0.057200
     28 H102        -1.9980     1.7090    -0.9760 h1         1 HA1       0.057200
     29 H111        -1.5220    -0.5630    -0.0160 hc         1 HA1       0.050200
     30 H112         0.2000    -0.3340    -0.3280 hc         1 HA1       0.050200
     31 H121         0.2190     1.6400     1.2220 hc         1 HA1       0.031200
     32 H122        -1.5030     1.4150     1.5320 hc         1 HA1       0.031200
     33 H131        -1.0280    -0.8680     2.4890 hc         1 HA1       0.062700
     34 H132         0.6870    -0.6420     2.1810 hc         1 HA1       0.062700
@<TRIPOS>BOND
     1     1     2 1   
     2     1    11 1   
     3     1    12 1   
     4     2     3 2   
     5     2    23 1   
     6     3     4 1   
     7     4     5 1   
     8     4    11 2   
     9     5     6 2   
    10     5     7 1   
    11     7     8 1   
    12     7    24 1   
    13     8     9 1   
    14     8    10 2   
    15     9    25 1   
    16     9    26 1   
    17    10    11 1   
    18    12    13 1   
    19    12    27 1   
    20    12    28 1   
    21    13    14 1   
    22    13    29 1   
    23    13    30 1   
    24    14    15 1   
    25    14    31 1   
    26    14    32 1   
    27    15    16 1   
    28    15    33 1   
    29    15    34 1   
    30    16    17 1   
    31    16    18 1   
    32    16    19 1   
    33    19    20 1   
    34    19    21 1   
    35    19    22 1   
@<TRIPOS>SUBSTRUCTURE
     1 HA1         1 TEMP              0 ****  ****    0 ROOT
