@<TRIPOS>MOLECULE
HA2
   56    57     1     0     0
SMALL
No Charge or Current Charge


@<TRIPOS>ATOM
      1 C3           7.4550    39.7970    67.4370 ca         1 HA2      -0.092000
      2 C2           7.5740    38.3970    67.4760 ca         1 HA2      -0.113000
      3 C1           8.2040    37.7740    68.5670 ca         1 HA2      -0.108000
      4 C6           8.7140    38.5530    69.6190 ca         1 HA2      -0.113000
      5 C5           8.5950    39.9530    69.5810 ca         1 HA2      -0.092000
      6 C4           7.9700    40.5860    68.4870 ca         1 HA2      -0.119300
      7 C7           7.8370    42.1090    68.4500 c3         1 HA2       0.210900
      8 O1           8.2660    42.6140    67.1680 os         1 HA2      -0.348100
      9 C8           9.5790    42.5700    66.7400 ca         1 HA2       0.123100
     10 C13          9.8440    42.9400    65.4120 ca         1 HA2      -0.165500
     11 C12         11.1590    42.9230    64.9160 ca         1 HA2      -0.064500
     12 C9          10.6480    42.1890    67.5800 ca         1 HA2      -0.165500
     13 C10         11.9630    42.1710    67.0820 ca         1 HA2      -0.064500
     14 C11         12.2270    42.5350    65.7470 ca         1 HA2      -0.083300
     15 C14         13.6560    42.5310    65.2090 c3         1 HA2      -0.024100
     16 C15         13.9570    41.3500    64.2460 c3         1 HA2       0.150500
     17 N2          13.8950    40.0530    64.9580 n8         1 HA2      -0.990200
     18 C16         15.3250    41.5080    63.5200 c3         1 HA2       0.065000
     19 N3          16.5070    41.4620    64.4210 n          1 HA2      -0.312300
     20 O2          16.9700    40.1400    64.7810 oh         1 HA2      -0.438100
     21 C17         17.1760    42.6290    64.8920 c          1 HA2       0.614100
     22 O3          16.8100    43.7440    64.5380 o          1 HA2      -0.570100
     23 C18         18.3840    42.4350    65.8360 c3         1 HA2      -0.138400
     24 C19         18.9290    43.7020    66.5410 c3         1 HA2      -0.071400
     25 C20         17.9730    44.2770    67.6140 c3         1 HA2      -0.055400
     26 C21         18.5480    45.5220    68.3330 c3         1 HA2      -0.203400
     27 C22         17.5530    46.0320    69.3920 c          1 HA2       0.717000
     28 O5          17.6220    45.5670    70.5190 o          1 HA2      -0.742500
     29 O4          16.7100    46.8450    69.0470 o          1 HA2      -0.742500
     30 H3           6.9650    40.2700    66.5890 ha         1 HA2       0.116500
     31 H2           7.1780    37.7950    66.6620 ha         1 HA2       0.109500
     32 H1           8.2960    36.6910    68.5970 ha         1 HA2       0.107000
     33 H6           9.2000    38.0720    70.4650 ha         1 HA2       0.109500
     34 H5           8.9910    40.5460    70.4040 ha         1 HA2       0.116500
     35 H7C1         6.7830    42.3670    68.6140 h1         1 HA2       0.056700
     36 H7C2         8.4120    42.5700    69.2630 h1         1 HA2       0.056700
     37 H13          9.0260    43.2400    64.7630 ha         1 HA2       0.114500
     38 H9          10.4820    41.9080    68.6140 ha         1 HA2       0.114500
     39 H12         11.3480    43.2130    63.8840 ha         1 HA2       0.111500
     40 H10         12.7790    41.8730    67.7370 ha         1 HA2       0.111500
     41 H141        13.8370    43.4720    64.6750 hc         1 HA2       0.066200
     42 H142        14.3760    42.5170    66.0360 hc         1 HA2       0.066200
     43 H15         13.1690    41.3490    63.4790 h1         1 HA2       0.057700
     44 H2N1        13.7910    39.3010    64.2680 hn         1 HA2       0.392000
     45 H2N2        14.8370    39.8850    65.3350 hn         1 HA2       0.392000
     46 H161        15.4240    40.7070    62.7760 h1         1 HA2       0.058200
     47 H162        15.3250    42.4540    62.9620 h1         1 HA2       0.058200
     48 HA          17.6230    39.8930    64.0870 ho         1 HA2       0.429000
     49 H181        18.1460    41.6470    66.5600 hc         1 HA2       0.052700
     50 H182        19.1700    41.9500    65.2460 hc         1 HA2       0.052700
     51 H191        19.8820    43.4480    67.0200 hc         1 HA2       0.035200
     52 H192        19.1510    44.4720    65.7910 hc         1 HA2       0.035200
     53 H201        17.0160    44.5430    67.1500 hc         1 HA2       0.044200
     54 H202        17.7600    43.4980    68.3570 hc         1 HA2       0.044200
     55 H211        19.4790    45.1890    68.8110 hc         1 HA2       0.014200
     56 H212        18.6990    46.2770    67.5520 hc         1 HA2       0.014200
@<TRIPOS>BOND
     1     1     2 ar  
     2     1     6 ar  
     3     1    30 1   
     4     2     3 ar  
     5     2    31 1   
     6     3     4 ar  
     7     3    32 1   
     8     4     5 ar  
     9     4    33 1   
    10     5     6 ar  
    11     5    34 1   
    12     6     7 1   
    13     7     8 1   
    14     7    35 1   
    15     7    36 1   
    16     8     9 1   
    17     9    10 ar  
    18     9    12 ar  
    19    10    11 ar  
    20    10    37 1   
    21    11    14 ar  
    22    11    39 1   
    23    12    13 ar  
    24    12    38 1   
    25    13    14 ar  
    26    13    40 1   
    27    14    15 1   
    28    15    16 1   
    29    15    41 1   
    30    15    42 1   
    31    16    17 1   
    32    16    18 1   
    33    16    43 1   
    34    17    44 1   
    35    17    45 1   
    36    18    19 1   
    37    18    46 1   
    38    18    47 1   
    39    19    20 1   
    40    19    21 1   
    41    20    48 1   
    42    21    22 2   
    43    21    23 1   
    44    23    24 1   
    45    23    49 1   
    46    23    50 1   
    47    24    25 1   
    48    24    51 1   
    49    24    52 1   
    50    25    26 1   
    51    25    53 1   
    52    25    54 1   
    53    26    27 1   
    54    26    55 1   
    55    26    56 1   
    56    27    28 1   
    57    27    29 1   
@<TRIPOS>SUBSTRUCTURE
     1 HA2         1 TEMP              0 ****  ****    0 ROOT
