@<TRIPOS>MOLECULE
HA2
   56    57     1     0     0
SMALL
bcc


@<TRIPOS>ATOM
      1 C3           7.3710    39.9580    66.9580 ca         1 HA2      -0.110000
      2 C2           7.2260    38.6350    66.5660 ca         1 HA2      -0.131000
      3 C1           7.4890    37.6050    67.4620 ca         1 HA2      -0.126000
      4 C6           7.9020    37.9070    68.7520 ca         1 HA2      -0.131000
      5 C5           8.0560    39.2330    69.1400 ca         1 HA2      -0.110000
      6 C4           7.7880    40.2680    68.2500 ca         1 HA2      -0.119300
      7 C7           7.9100    41.7010    68.7010 c3         1 HA2       0.187700
      8 O1           8.4040    42.5620    67.6970 os         1 HA2      -0.324900
      9 C8           9.6940    42.4390    67.3010 ca         1 HA2       0.123100
     10 C13         10.0700    43.1960    66.1920 ca         1 HA2      -0.183500
     11 C12         11.3740    43.1530    65.7290 ca         1 HA2      -0.082500
     12 C9          10.6440    41.6420    67.9300 ca         1 HA2      -0.183500
     13 C10         11.9470    41.6120    67.4470 ca         1 HA2      -0.082500
     14 C11         12.3410    42.3600    66.3450 ca         1 HA2      -0.083300
     15 C14         13.7430    42.2970    65.8130 c3         1 HA2      -0.024100
     16 C15         13.9050    41.2730    64.6850 c3         1 HA2       0.150500
     17 N2          13.6110    39.9390    65.1760 n8         1 HA2      -0.879800
     18 C16         15.2590    41.4440    63.9730 c3         1 HA2       0.065000
     19 N3          16.4090    41.5060    64.8460 n          1 HA2      -0.379300
     20 O2          16.6730    40.3730    65.5700 oh         1 HA2      -0.399100
     21 C17         17.1370    42.6210    65.1000 c          1 HA2       0.681100
     22 O3          16.8980    43.6690    64.5190 o          1 HA2      -0.570100
     23 C18         18.2630    42.4740    66.1030 c3         1 HA2      -0.138400
     24 C19         19.0210    43.7690    66.3620 c3         1 HA2      -0.071400
     25 C20         18.2710    44.7810    67.2210 c3         1 HA2      -0.055400
     26 C21         19.1080    46.0210    67.4910 c3         1 HA2      -0.203400
     27 C22         18.4500    47.1190    68.3440 c          1 HA2       0.927600
     28 O5          19.2130    48.0130    68.7690 o          1 HA2      -0.847800
     29 O4          17.2190    47.0530    68.5320 o          1 HA2      -0.847800
     30 H3           7.1600    40.7490    66.2500 ha         1 HA2       0.134500
     31 H2           6.9040    38.4050    65.5590 ha         1 HA2       0.127500
     32 H1           7.3740    36.5740    67.1540 ha         1 HA2       0.125000
     33 H6           8.1140    37.1120    69.4550 ha         1 HA2       0.127500
     34 H5           8.3910    39.4620    70.1450 ha         1 HA2       0.134500
     35 H7C1         6.9240    42.0970    68.9500 h1         1 HA2       0.056700
     36 H7C2         8.5120    41.7620    69.6140 h1         1 HA2       0.056700
     37 H13          9.3370    43.8230    65.6990 ha         1 HA2       0.132500
     38 H9          10.4000    41.0390    68.7940 ha         1 HA2       0.132500
     39 H12         11.6420    43.7510    64.8650 ha         1 HA2       0.129500
     40 H10         12.6710    40.9830    67.9510 ha         1 HA2       0.129500
     41 H141        14.0460    43.2810    65.4440 hc         1 HA2       0.066200
     42 H142        14.4340    42.0500    66.6250 hc         1 HA2       0.066200
     43 H15         13.1560    41.5010    63.9180 h1         1 HA2       0.057700
     44 H2N1        13.7050    39.2700    64.4220 hn         1 HA2       0.336800
     45 H2N2        14.2910    39.6680    65.8740 hn         1 HA2       0.336800
     46 H161        15.4000    40.6270    63.2570 h1         1 HA2       0.058200
     47 H162        15.2520    42.3670    63.3960 h1         1 HA2       0.058200
     48 HA          17.2200    39.8070    65.0060 ho         1 HA2       0.390000
     49 H181        17.8680    42.0800    67.0440 hc         1 HA2       0.052700
     50 H182        18.9530    41.7090    65.7350 hc         1 HA2       0.052700
     51 H191        19.9560    43.5070    66.8660 hc         1 HA2       0.035200
     52 H192        19.3100    44.2300    65.4130 hc         1 HA2       0.035200
     53 H201        17.3370    45.0640    66.7340 hc         1 HA2       0.044200
     54 H202        17.9910    44.3070    68.1680 hc         1 HA2       0.044200
     55 H211        20.0560    45.7350    67.9610 hc         1 HA2       0.014200
     56 H212        19.3970    46.4730    66.5330 hc         1 HA2       0.014200
@<TRIPOS>BOND
     1     1     2 ar  
     2     1     6 ar  
     3     1    30 1   
     4     2     3 ar  
     5     2    31 1   
     6     3     4 ar  
     7     3    32 1   
     8     4     5 ar  
     9     4    33 1   
    10     5     6 ar  
    11     5    34 1   
    12     6     7 1   
    13     7     8 1   
    14     7    35 1   
    15     7    36 1   
    16     8     9 1   
    17     9    10 ar  
    18     9    12 ar  
    19    10    11 ar  
    20    10    37 1   
    21    11    14 ar  
    22    11    39 1   
    23    12    13 ar  
    24    12    38 1   
    25    13    14 ar  
    26    13    40 1   
    27    14    15 1   
    28    15    16 1   
    29    15    41 1   
    30    15    42 1   
    31    16    17 1   
    32    16    18 1   
    33    16    43 1   
    34    17    44 1   
    35    17    45 1   
    36    18    19 1   
    37    18    46 1   
    38    18    47 1   
    39    19    20 1   
    40    19    21 1   
    41    20    48 1   
    42    21    22 2   
    43    21    23 1   
    44    23    24 1   
    45    23    49 1   
    46    23    50 1   
    47    24    25 1   
    48    24    51 1   
    49    24    52 1   
    50    25    26 1   
    51    25    53 1   
    52    25    54 1   
    53    26    27 1   
    54    26    55 1   
    55    26    56 1   
    56    27    28 1   
    57    27    29 1   
@<TRIPOS>SUBSTRUCTURE
     1 HA2         1 TEMP              0 ****  ****    0 ROOT
