@<TRIPOS>MOLECULE
HA3
   42    45     1     0     0
SMALL
bcc


@<TRIPOS>ATOM
      1 CAA         17.4330    -5.1940    -9.2010 ca         1 HA3      -0.117000
      2 CAB         16.9800    -5.3670   -10.4990 ca         1 HA3      -0.127000
      3 CAC         16.8650    -6.6430   -11.0360 ca         1 HA3      -0.122000
      4 CAD         17.2000    -7.7440   -10.2590 ca         1 HA3      -0.127000
      5 CAE         17.6400    -7.5740    -8.9550 ca         1 HA3      -0.117000
      6 CAF         17.7680    -6.2950    -8.4080 ca         1 HA3      -0.012000
      7 CAG         18.1890    -6.0740    -7.0270 cc         1 HA3      -0.161600
      8 CAH         17.7070    -5.1940    -6.0930 cd         1 HA3       0.315200
      9 NAI         18.3770    -5.3230    -4.9140 nd         1 HA3      -0.666000
     10 CAJ         19.2620    -6.2650    -5.1220 cc         1 HA3       0.366800
     11 CAK         20.2680    -6.7480    -4.1230 c6         1 HA3       0.078700
     12 NAL         19.1940    -6.7550    -6.3780 na         1 HA3      -0.170900
     13 CAM         20.1000    -7.7620    -6.9070 c6         1 HA3       0.015300
     14 CAN         21.3190    -7.8350    -6.0070 c6         1 HA3       0.072000
     15 NAO         20.9120    -7.9510    -4.6170 n          1 HA3      -0.468800
     16 CAP         20.8090    -9.1800    -4.0590 c          1 HA3       0.713700
     17 OAQ         20.9900   -10.2110    -4.6890 o          1 HA3      -0.588100
     18 CAR         20.5170    -9.2670    -2.6100 cc         1 HA3      -0.168700
     19 SAS         19.6820   -10.6620    -2.0690 ss         1 HA3       0.155200
     20 CAT         20.9190    -8.4770    -1.5670 cd         1 HA3      -0.122000
     21 CAU         20.5240    -8.9960    -0.3160 cd         1 HA3      -0.125000
     22 CAV         19.8290   -10.1700    -0.4360 cc         1 HA3      -0.177700
     23 CAW         19.2130   -11.0600     0.5690 c          1 HA3       0.705700
     24 OAY         18.7270   -12.1270     0.2400 o          1 HA3      -0.566100
     25 NAX         19.2720   -10.6100     1.8380 ns         1 HA3      -0.432400
     26 OAZ         18.5690   -11.2710     2.7970 oh         1 HA3      -0.388100
     27 HAA         17.5440    -4.1940    -8.8000 ha         1 HA3       0.134000
     28 HAB         16.7260    -4.5000   -11.0960 ha         1 HA3       0.133500
     29 HAC         16.5170    -6.7790   -12.0520 ha         1 HA3       0.133000
     30 HAD         17.1050    -8.7430   -10.6650 ha         1 HA3       0.133500
     31 HAE         17.8600    -8.4500    -8.3590 ha         1 HA3       0.134000
     32 HAH         16.8940    -4.4950    -6.2130 h4         1 HA3       0.042100
     33 HAK1        21.0160    -5.9700    -3.9460 h1         1 HA3       0.080700
     34 HAK2        19.7600    -6.9340    -3.1810 h1         1 HA3       0.080700
     35 HAM1        19.6010    -8.7310    -6.9460 h1         1 HA3       0.074200
     36 HAM2        20.3950    -7.4890    -7.9200 h1         1 HA3       0.074200
     37 HAN1        21.9430    -8.6750    -6.2940 h1         1 HA3       0.077700
     38 HAN2        21.9170    -6.9260    -6.1050 h1         1 HA3       0.077700
     39 HAT         21.5010    -7.5730    -1.6780 ha         1 HA3       0.158000
     40 HAU         20.7620    -8.5150     0.6230 ha         1 HA3       0.151000
     41 HAX         19.4590    -9.6420     2.0580 hn         1 HA3       0.337500
     42 HAZ         19.2110   -11.8140     3.2730 ho         1 HA3       0.412000
@<TRIPOS>BOND
     1     1     2 ar  
     2     1     6 ar  
     3     1    27 1   
     4     2     3 ar  
     5     2    28 1   
     6     3     4 ar  
     7     3    29 1   
     8     4     5 ar  
     9     4    30 1   
    10     5     6 ar  
    11     5    31 1   
    12     6     7 1   
    13     7     8 2   
    14     7    12 1   
    15     8     9 1   
    16     8    32 1   
    17     9    10 2   
    18    10    11 1   
    19    10    12 1   
    20    11    15 1   
    21    11    33 1   
    22    11    34 1   
    23    12    13 1   
    24    13    14 1   
    25    13    35 1   
    26    13    36 1   
    27    14    15 1   
    28    14    37 1   
    29    14    38 1   
    30    15    16 1   
    31    16    17 2   
    32    16    18 1   
    33    18    19 1   
    34    18    20 2   
    35    19    22 1   
    36    20    21 1   
    37    20    39 1   
    38    21    22 2   
    39    21    40 1   
    40    22    23 1   
    41    23    24 2   
    42    23    25 1   
    43    25    26 1   
    44    25    41 1   
    45    26    42 1   
@<TRIPOS>SUBSTRUCTURE
     1 HA3         1 TEMP              0 ****  ****    0 ROOT
