@<TRIPOS>MOLECULE
HA3
   42    45     1     0     0
SMALL
No Charge or Current Charge


@<TRIPOS>ATOM
      1 CAA         17.5070    -4.8750    -9.3170 ca         1 HA3      -0.099000
      2 CAB         17.1800    -4.8710   -10.6850 ca         1 HA3      -0.109000
      3 CAC         17.1540    -6.0760   -11.4050 ca         1 HA3      -0.104000
      4 CAD         17.4530    -7.2840   -10.7550 ca         1 HA3      -0.109000
      5 CAE         17.7810    -7.2870    -9.3880 ca         1 HA3      -0.099000
      6 CAF         17.8170    -6.0820    -8.6560 ca         1 HA3      -0.012000
      7 CAG         18.1550    -6.0730    -7.2290 cc         1 HA3      -0.147000
      8 CAH         17.5800    -5.2130    -6.3270 cd         1 HA3       0.249900
      9 NAI         18.0660    -5.4690    -5.0560 nd         1 HA3      -0.666000
     10 CAJ         18.9220    -6.4780    -5.1870 cc         1 HA3       0.366800
     11 CAK         19.7500    -7.1270    -4.0920 c6         1 HA3       0.078700
     12 NAL         19.0000    -6.8820    -6.5030 na         1 HA3      -0.149500
     13 CAM         19.9110    -7.9360    -6.9860 c6         1 HA3       0.044600
     14 CAN         21.0750    -8.1100    -5.9810 c6         1 HA3       0.072000
     15 NAO         20.5820    -8.2810    -4.5800 n          1 HA3      -0.401800
     16 CAP         20.6120    -9.5490    -3.9480 c          1 HA3       0.646700
     17 OAQ         20.7990   -10.5610    -4.6080 o          1 HA3      -0.588100
     18 CAR         20.4200    -9.6260    -2.4790 cc         1 HA3      -0.313600
     19 SAS         20.1640   -11.1920    -1.7210 ss         1 HA3       0.445000
     20 CAT         20.5170    -8.6220    -1.5340 cd         1 HA3      -0.104000
     21 CAU         20.3130    -9.0810    -0.2060 cd         1 HA3      -0.107000
     22 CAV         20.0850   -10.4390    -0.1360 cc         1 HA3      -0.322600
     23 CAW         19.8250   -11.2430     1.0710 c          1 HA3       0.638700
     24 OAY         19.6580   -12.4550     1.0460 o          1 HA3      -0.566100
     25 NAX         19.7920   -10.5090     2.2500 ns         1 HA3      -0.365400
     26 OAZ         19.2950   -11.0910     3.4820 oh         1 HA3      -0.427100
     27 HAA         17.5310    -3.9320    -8.7770 ha         1 HA3       0.116000
     28 HAB         16.9490    -3.9340   -11.1860 ha         1 HA3       0.115500
     29 HAC         16.9000    -6.0740   -12.4630 ha         1 HA3       0.115000
     30 HAD         17.4260    -8.2200   -11.3090 ha         1 HA3       0.115500
     31 HAE         17.9870    -8.2350    -8.8990 ha         1 HA3       0.116000
     32 HAH         16.8450    -4.4380    -6.5110 h4         1 HA3       0.042100
     33 HAK1        20.4110    -6.3730    -3.6430 h1         1 HA3       0.080700
     34 HAK2        19.0560    -7.4700    -3.3140 h1         1 HA3       0.080700
     35 HAM1        19.3550    -8.8800    -7.0720 h1         1 HA3       0.074200
     36 HAM2        20.3040    -7.6690    -7.9770 h1         1 HA3       0.074200
     37 HAN1        21.6990    -8.9630    -6.2840 h1         1 HA3       0.077700
     38 HAN2        21.7190    -7.2200    -6.0210 h1         1 HA3       0.077700
     39 HAT         20.7550    -7.5860    -1.7470 ha         1 HA3       0.140000
     40 HAU         20.3490    -8.4140     0.6510 ha         1 HA3       0.133000
     41 HAX         19.7770    -9.4940     2.1950 hn         1 HA3       0.337500
     42 HAZ         19.9960   -10.8720     4.1410 ho         1 HA3       0.451000
@<TRIPOS>BOND
     1     1     2 ar  
     2     1     6 ar  
     3     1    27 1   
     4     2     3 ar  
     5     2    28 1   
     6     3     4 ar  
     7     3    29 1   
     8     4     5 ar  
     9     4    30 1   
    10     5     6 ar  
    11     5    31 1   
    12     6     7 1   
    13     7     8 2   
    14     7    12 1   
    15     8     9 1   
    16     8    32 1   
    17     9    10 2   
    18    10    11 1   
    19    10    12 1   
    20    11    15 1   
    21    11    33 1   
    22    11    34 1   
    23    12    13 1   
    24    13    14 1   
    25    13    35 1   
    26    13    36 1   
    27    14    15 1   
    28    14    37 1   
    29    14    38 1   
    30    15    16 1   
    31    16    17 2   
    32    16    18 1   
    33    18    19 1   
    34    18    20 2   
    35    19    22 1   
    36    20    21 1   
    37    20    39 1   
    38    21    22 2   
    39    21    40 1   
    40    22    23 1   
    41    23    24 2   
    42    23    25 1   
    43    25    26 1   
    44    25    41 1   
    45    26    42 1   
@<TRIPOS>SUBSTRUCTURE
     1 HA3         1 TEMP              0 ****  ****    0 ROOT
