@<TRIPOS>MOLECULE
HA4
   53    53     1     0     0
SMALL
bcc


@<TRIPOS>ATOM
      1 O2           6.4830   -15.7480    -1.5930 o          1 HA4      -0.847800
      2 C1           5.6120   -16.6400    -1.5010 c          1 HA4       0.924600
      3 O1           4.7200   -16.7100    -0.6290 o          1 HA4      -0.847800
      4 C2           5.6280   -17.7340    -2.5840 c3         1 HA4      -0.200400
      5 C3           7.0030   -18.3420    -2.8770 c3         1 HA4      -0.035700
      6 C18          7.6890   -18.8720    -1.6110 c3         1 HA4      -0.067900
      7 C17          6.9190   -19.9400    -0.8430 c3         1 HA4      -0.076400
      8 C16          7.6850   -20.4410     0.3770 c3         1 HA4      -0.071400
      9 C15          6.9240   -21.4610     1.2260 c3         1 HA4      -0.069900
     10 C14          6.3300   -22.6270     0.4370 c3         1 HA4      -0.074400
     11 C13          7.3470   -23.4250    -0.3740 c3         1 HA4      -0.074900
     12 C12          6.7060   -24.2440    -1.4880 c3         1 HA4      -0.072900
     13 C11          7.7300   -24.9930    -2.3350 c3         1 HA4      -0.072400
     14 C10          7.2250   -25.4270    -3.7110 c3         1 HA4      -0.072900
     15 C9           6.7030   -24.2900    -4.5930 c3         1 HA4      -0.074900
     16 C8           7.6430   -23.0930    -4.7000 c3         1 HA4      -0.074400
     17 C7           7.1400   -22.0270    -5.6650 c3         1 HA4      -0.069900
     18 C6           8.0460   -20.8000    -5.7660 c3         1 HA4      -0.071400
     19 C5           8.1890   -19.9780    -4.4840 c3         1 HA4      -0.076400
     20 C4           6.8720   -19.3930    -3.9840 c3         1 HA4      -0.067900
     21 H2           5.2520   -17.2900    -3.5140 hc         1 HA4       0.015700
     22 H3           4.9200   -18.5260    -2.3280 hc         1 HA4       0.015700
     23 H4           7.6410   -17.5390    -3.2650 hc         1 HA4       0.052700
     24 H5           8.6750   -19.2690    -1.8730 hc         1 HA4       0.030450
     25 H6           7.8840   -18.0280    -0.9440 hc         1 HA4       0.030450
     26 H7           5.9500   -19.5450    -0.5240 hc         1 HA4       0.039700
     27 H8           6.7020   -20.7820    -1.5090 hc         1 HA4       0.039700
     28 H9           8.6390   -20.8660     0.0490 hc         1 HA4       0.028200
     29 H10          7.9500   -19.5870     1.0100 hc         1 HA4       0.028200
     30 H11          7.5930   -21.8450     2.0030 hc         1 HA4       0.031700
     31 H12          6.1120   -20.9510     1.7550 hc         1 HA4       0.031700
     32 H13          5.5590   -22.2410    -0.2380 hc         1 HA4       0.037950
     33 H14          5.8050   -23.2970     1.1240 hc         1 HA4       0.037950
     34 H15          7.9310   -24.0700     0.2910 hc         1 HA4       0.034700
     35 H16          8.0680   -22.7460    -0.8410 hc         1 HA4       0.034700
     36 H17          6.1380   -23.5510    -2.1160 hc         1 HA4       0.033700
     37 H18          5.9730   -24.9440    -1.0760 hc         1 HA4       0.033700
     38 H19          8.0800   -25.8740    -1.7890 hc         1 HA4       0.032700
     39 H20          8.6140   -24.3610    -2.4630 hc         1 HA4       0.032700
     40 H21          6.4340   -26.1750    -3.5930 hc         1 HA4       0.033700
     41 H22          8.0420   -25.9340    -4.2330 hc         1 HA4       0.033700
     42 H23          5.7320   -23.9420    -4.2250 hc         1 HA4       0.034700
     43 H24          6.5100   -24.6880    -5.5940 hc         1 HA4       0.034700
     44 H25          8.6370   -23.4310    -5.0170 hc         1 HA4       0.037950
     45 H26          7.7790   -22.6490    -3.7090 hc         1 HA4       0.037950
     46 H27          6.1300   -21.7210    -5.3730 hc         1 HA4       0.031700
     47 H28          7.0370   -22.4690    -6.6610 hc         1 HA4       0.031700
     48 H29          9.0390   -21.1240    -6.0940 hc         1 HA4       0.028200
     49 H30          7.6650   -20.1470    -6.5580 hc         1 HA4       0.028200
     50 H31          8.6530   -20.5870    -3.7030 hc         1 HA4       0.039700
     51 H32          8.8920   -19.1600    -4.6780 hc         1 HA4       0.039700
     52 H33          6.3560   -18.9300    -4.8330 hc         1 HA4       0.030450
     53 H34          6.2130   -20.2010    -3.6500 hc         1 HA4       0.030450
@<TRIPOS>BOND
     1     1     2 1   
     2     2     3 1   
     3     2     4 1   
     4     4     5 1   
     5     4    21 1   
     6     4    22 1   
     7     5     6 1   
     8     5    20 1   
     9     5    23 1   
    10     6     7 1   
    11     6    24 1   
    12     6    25 1   
    13     7     8 1   
    14     7    26 1   
    15     7    27 1   
    16     8     9 1   
    17     8    28 1   
    18     8    29 1   
    19     9    10 1   
    20     9    30 1   
    21     9    31 1   
    22    10    11 1   
    23    10    32 1   
    24    10    33 1   
    25    11    12 1   
    26    11    34 1   
    27    11    35 1   
    28    12    13 1   
    29    12    36 1   
    30    12    37 1   
    31    13    14 1   
    32    13    38 1   
    33    13    39 1   
    34    14    15 1   
    35    14    40 1   
    36    14    41 1   
    37    15    16 1   
    38    15    42 1   
    39    15    43 1   
    40    16    17 1   
    41    16    44 1   
    42    16    45 1   
    43    17    18 1   
    44    17    46 1   
    45    17    47 1   
    46    18    19 1   
    47    18    48 1   
    48    18    49 1   
    49    19    20 1   
    50    19    50 1   
    51    19    51 1   
    52    20    52 1   
    53    20    53 1   
@<TRIPOS>SUBSTRUCTURE
     1 HA4         1 TEMP              0 ****  ****    0 ROOT
