@<TRIPOS>MOLECULE
HA4
   53    53     1     0     0
SMALL
No Charge or Current Charge


@<TRIPOS>ATOM
      1 O2           6.1300   -15.2490    -2.1030 o          1 HA4      -0.742500
      2 C1           5.7750   -16.3180    -1.6290 c          1 HA4       0.714000
      3 O1           5.5470   -16.4840    -0.4410 o          1 HA4      -0.742500
      4 C2           5.6170   -17.5190    -2.5860 c3         1 HA4      -0.200400
      5 C3           6.9740   -18.2470    -2.8510 c3         1 HA4      -0.035700
      6 C18          7.6550   -18.8020    -1.5590 c3         1 HA4      -0.067900
      7 C17          6.8760   -19.9110    -0.8080 c3         1 HA4      -0.076400
      8 C16          7.6280   -20.4520     0.4340 c3         1 HA4      -0.071400
      9 C15          6.8540   -21.5240     1.2510 c3         1 HA4      -0.069900
     10 C14          6.2830   -22.7130     0.4350 c3         1 HA4      -0.074400
     11 C13          7.3410   -23.5340    -0.3420 c3         1 HA4      -0.074900
     12 C12          6.7240   -24.4050    -1.4560 c3         1 HA4      -0.072900
     13 C11          7.7940   -25.1020    -2.3330 c3         1 HA4      -0.072400
     14 C10          7.3060   -25.5340    -3.7410 c3         1 HA4      -0.072900
     15 C9           6.7560   -24.3950    -4.6460 c3         1 HA4      -0.074900
     16 C8           7.6610   -23.1410    -4.7350 c3         1 HA4      -0.074400
     17 C7           7.1030   -22.0490    -5.6760 c3         1 HA4      -0.069900
     18 C6           7.9940   -20.7840    -5.7810 c3         1 HA4      -0.071400
     19 C5           8.1380   -19.9400    -4.4860 c3         1 HA4      -0.076400
     20 C4           6.8140   -19.3050    -3.9870 c3         1 HA4      -0.067900
     21 H2           5.3020   -17.1450    -3.5680 hc         1 HA4       0.015700
     22 H3           4.9260   -18.2600    -2.1700 hc         1 HA4       0.015700
     23 H4           7.6560   -17.4820    -3.2440 hc         1 HA4       0.052700
     24 H5           8.6490   -19.1850    -1.8160 hc         1 HA4       0.030450
     25 H6           7.8400   -17.9730    -0.8660 hc         1 HA4       0.030450
     26 H7           5.9000   -19.5290    -0.4880 hc         1 HA4       0.039700
     27 H8           6.6890   -20.7390    -1.5010 hc         1 HA4       0.039700
     28 H9           8.5970   -20.8590     0.1210 hc         1 HA4       0.028200
     29 H10          7.8570   -19.6120     1.1030 hc         1 HA4       0.028200
     30 H11          7.5140   -21.9130     2.0360 hc         1 HA4       0.031700
     31 H12          6.0200   -21.0320     1.7670 hc         1 HA4       0.031700
     32 H13          5.5270   -22.3310    -0.2610 hc         1 HA4       0.037950
     33 H14          5.7480   -23.3860     1.1160 hc         1 HA4       0.037950
     34 H15          7.9080   -24.1620     0.3570 hc         1 HA4       0.034700
     35 H16          8.0610   -22.8550    -0.8120 hc         1 HA4       0.034700
     36 H17          6.1000   -23.7550    -2.0770 hc         1 HA4       0.033700
     37 H18          6.0570   -25.1590    -1.0190 hc         1 HA4       0.033700
     38 H19          8.1650   -25.9860    -1.7990 hc         1 HA4       0.032700
     39 H20          8.6630   -24.4440    -2.4530 hc         1 HA4       0.032700
     40 H21          6.5310   -26.3020    -3.6310 hc         1 HA4       0.033700
     41 H22          8.1450   -26.0150    -4.2600 hc         1 HA4       0.033700
     42 H23          5.7620   -24.0970    -4.2920 hc         1 HA4       0.034700
     43 H24          6.6070   -24.8000    -5.6540 hc         1 HA4       0.034700
     44 H25          8.6600   -23.4380    -5.0760 hc         1 HA4       0.037950
     45 H26          7.7740   -22.7100    -3.7350 hc         1 HA4       0.037950
     46 H27          6.0950   -21.7640    -5.3520 hc         1 HA4       0.031700
     47 H28          6.9940   -22.4770    -6.6810 hc         1 HA4       0.031700
     48 H29          8.9940   -21.0880    -6.1130 hc         1 HA4       0.028200
     49 H30          7.5940   -20.1410    -6.5740 hc         1 HA4       0.028200
     50 H31          8.5790   -20.5560    -3.6950 hc         1 HA4       0.039700
     51 H32          8.8560   -19.1360    -4.6870 hc         1 HA4       0.039700
     52 H33          6.3310   -18.8220    -4.8450 hc         1 HA4       0.030450
     53 H34          6.1290   -20.0950    -3.6580 hc         1 HA4       0.030450
@<TRIPOS>BOND
     1     1     2 1   
     2     2     3 1   
     3     2     4 1   
     4     4     5 1   
     5     4    21 1   
     6     4    22 1   
     7     5     6 1   
     8     5    20 1   
     9     5    23 1   
    10     6     7 1   
    11     6    24 1   
    12     6    25 1   
    13     7     8 1   
    14     7    26 1   
    15     7    27 1   
    16     8     9 1   
    17     8    28 1   
    18     8    29 1   
    19     9    10 1   
    20     9    30 1   
    21     9    31 1   
    22    10    11 1   
    23    10    32 1   
    24    10    33 1   
    25    11    12 1   
    26    11    34 1   
    27    11    35 1   
    28    12    13 1   
    29    12    36 1   
    30    12    37 1   
    31    13    14 1   
    32    13    38 1   
    33    13    39 1   
    34    14    15 1   
    35    14    40 1   
    36    14    41 1   
    37    15    16 1   
    38    15    42 1   
    39    15    43 1   
    40    16    17 1   
    41    16    44 1   
    42    16    45 1   
    43    17    18 1   
    44    17    46 1   
    45    17    47 1   
    46    18    19 1   
    47    18    48 1   
    48    18    49 1   
    49    19    20 1   
    50    19    50 1   
    51    19    51 1   
    52    20    52 1   
    53    20    53 1   
@<TRIPOS>SUBSTRUCTURE
     1 HA4         1 TEMP              0 ****  ****    0 ROOT
