@<TRIPOS>MOLECULE
HA5
   20    21     1     0     0
SMALL
bcc


@<TRIPOS>ATOM
      1 N1          57.2050    27.2760    47.0660 nc         1 HA5      -0.506300
      2 O2          58.3510    27.7160    46.4390 os         1 HA5      -0.124100
      3 C3          58.3210    27.3260    45.1660 cc         1 HA5       0.288000
      4 C4          59.3960    27.6210    44.1860 c6         1 HA5       0.129500
      5 N5          59.1840    26.7100    43.0770 n7         1 HA5      -0.806200
      6 C6          57.8300    26.7610    42.5440 c6         1 HA5       0.025500
      7 C7          57.7640    26.1190    41.1410 c          1 HA5       0.937600
      8 O8          56.6420    25.7350    40.7640 o          1 HA5      -0.830300
      9 O9          58.8270    26.0780    40.4910 o          1 HA5      -0.830300
     10 C10         56.8670    26.1070    43.5400 c6         1 HA5       0.029900
     11 C11         57.1930    26.6380    44.8940 cd         1 HA5      -0.322900
     12 C12         56.5310    26.6400    46.1480 cd         1 HA5       0.572600
     13 O13         55.3580    26.0650    46.3750 oh         1 HA5      -0.587300
     14 H4          59.3470    28.6860    43.9040 h1         1 HA5       0.035200
     15 H4A         60.3830    27.4530    44.6250 h1         1 HA5       0.035200
     16 HN5         59.8330    26.9080    42.3280 hn         1 HA5       0.394800
     17 H6          57.4960    27.8090    42.4160 h1         1 HA5       0.005700
     18 H10         55.8360    26.3330    43.2670 hc         1 HA5       0.063700
     19 H10A        56.9720    25.0180    43.5160 hc         1 HA5       0.063700
     20 H8          55.0960    26.1770    47.2980 ho         1 HA5       0.428000
@<TRIPOS>BOND
     1     1     2 1   
     2     1    12 2   
     3     2     3 1   
     4     3     4 1   
     5     3    11 2   
     6     4     5 1   
     7     4    14 1   
     8     4    15 1   
     9     5     6 1   
    10     5    16 1   
    11     6     7 1   
    12     6    10 1   
    13     6    17 1   
    14     7     8 1   
    15     7     9 1   
    16    10    11 1   
    17    10    18 1   
    18    10    19 1   
    19    11    12 1   
    20    12    13 1   
    21    13    20 1   
@<TRIPOS>SUBSTRUCTURE
     1 HA5         1 TEMP              0 ****  ****    0 ROOT
