@<TRIPOS>MOLECULE
HA5
   20    21     1     0     0
SMALL
No Charge or Current Charge


@<TRIPOS>ATOM
      1 N1          57.1290    27.2090    47.1520 nc         1 HA5      -0.506300
      2 O2          58.3350    27.7450    46.5370 os         1 HA5      -0.079700
      3 C3          58.3370    27.3620    45.2140 cc         1 HA5       0.178300
      4 C4          59.3970    27.7280    44.1990 c6         1 HA5       0.129500
      5 N5          59.2580    26.8560    42.9890 n7         1 HA5      -0.861400
      6 C6          57.8180    26.7110    42.5030 c6         1 HA5       0.025500
      7 C7          57.6200    25.9730    41.1120 c          1 HA5       0.727000
      8 O8          57.0080    26.5940    40.2530 o          1 HA5      -0.725000
      9 O9          58.4380    25.1130    40.8030 o          1 HA5      -0.725000
     10 C10         56.9020    26.0600    43.5920 c6         1 HA5       0.029900
     11 C11         57.2240    26.6410    44.9500 cd         1 HA5      -0.192300
     12 C12         56.5330    26.5770    46.1640 cd         1 HA5       0.507300
     13 O13         55.3710    25.9490    46.3600 oh         1 HA5      -0.626300
     14 H4          59.2760    28.7810    43.9050 h1         1 HA5       0.035200
     15 H4A         60.4050    27.6140    44.6260 h1         1 HA5       0.035200
     16 HN5         59.8440    27.2280    42.2270 hn         1 HA5       0.450000
     17 H6          57.4450    27.7350    42.3490 h1         1 HA5       0.005700
     18 H10         55.8450    26.2190    43.3370 hc         1 HA5       0.063700
     19 H10A        57.0610    24.9730    43.6060 hc         1 HA5       0.063700
     20 H8          55.1850    26.1070    47.3080 ho         1 HA5       0.467000
@<TRIPOS>BOND
     1     1     2 1   
     2     1    12 2   
     3     2     3 1   
     4     3     4 1   
     5     3    11 2   
     6     4     5 1   
     7     4    14 1   
     8     4    15 1   
     9     5     6 1   
    10     5    16 1   
    11     6     7 1   
    12     6    10 1   
    13     6    17 1   
    14     7     8 1   
    15     7     9 1   
    16    10    11 1   
    17    10    18 1   
    18    10    19 1   
    19    11    12 1   
    20    12    13 1   
    21    13    20 1   
@<TRIPOS>SUBSTRUCTURE
     1 HA5         1 TEMP              0 ****  ****    0 ROOT
