@<TRIPOS>MOLECULE
HA6
   24    26     1     0     0
SMALL
abcg2


@<TRIPOS>ATOM
      1 C1          -2.2420    -0.2430    -0.0070 ca         1 HA6      -0.193600
      2 N1          -2.8240     2.3520     0.7590 nb         1 HA6      -0.638000
      3 O1           1.6190    -1.2720    -0.5040 os         1 HA6      -0.295700
      4 C01         -1.8990    -1.6080    -0.4090 c          1 HA6       0.590600
      5 N01         -0.5400    -1.8040    -0.5350 ns         1 HA6      -0.430400
      6 O01         -2.6920    -2.5000    -0.6210 o          1 HA6      -0.515000
      7 C02          0.3800    -0.8290    -0.3120 cc         1 HA6       0.697200
      8 N02          4.3710     0.6770     0.3810 na         1 HA6       0.007800
      9 C03          2.6560    -0.3860    -0.3630 cc         1 HA6      -0.024900
     10 N03          4.1900     1.1580    -0.8410 nd         1 HA6      -0.506800
     11 C04          3.4750    -0.2580     0.7300 cd         1 HA6      -0.150000
     12 N04          0.1150     0.3690     0.0390 nd         1 HA6      -0.680100
     13 C05          3.1380     0.5180    -1.3170 cc         1 HA6       0.259900
     14 C06         -1.2110     0.6760     0.1980 ca         1 HA6       0.160400
     15 C07         -1.5770     1.9760     0.5860 ca         1 HA6       0.345900
     16 C08         -3.8020     1.4610     0.5580 ca         1 HA6       0.301900
     17 C09         -3.5630     0.1590     0.1770 ca         1 HA6      -0.085000
     18 HN01        -0.2260    -2.7280    -0.8100 hn         1 HA6       0.345500
     19 H04          3.4830    -0.7520     1.6880 h4         1 HA6       0.169000
     20 H05          2.7630     0.7170    -2.3090 h4         1 HA6       0.052100
     21 H07         -0.7980     2.7120     0.7540 h4         1 HA6       0.039100
     22 H08         -4.8150     1.8110     0.7120 h4         1 HA6       0.026100
     23 H09         -4.3820    -0.5310     0.0250 ha         1 HA6       0.143000
     24 HN02         5.1330     1.0200     0.9460 hn         1 HA6       0.381000
@<TRIPOS>BOND
     1     1     4 1   
     2     1    14 ar  
     3     1    17 ar  
     4     2    15 ar  
     5     2    16 ar  
     6     3     7 1   
     7     3     9 1   
     8     4     5 1   
     9     4     6 2   
    10     5     7 1   
    11     5    18 1   
    12     7    12 2   
    13     8    10 1   
    14     8    11 1   
    15     8    24 1   
    16     9    11 2   
    17     9    13 1   
    18    10    13 2   
    19    11    19 1   
    20    12    14 1   
    21    13    20 1   
    22    14    15 ar  
    23    15    21 1   
    24    16    17 ar  
    25    16    22 1   
    26    17    23 1   
@<TRIPOS>SUBSTRUCTURE
     1 HA6         1 TEMP              0 ****  ****    0 ROOT
