@<TRIPOS>MOLECULE
HA6
   24    26     1     0     0
SMALL
No Charge or Current Charge


@<TRIPOS>ATOM
      1 C1          -2.1700    -0.1420    -0.1960 ca         1 HA6      -0.193600
      2 N1          -3.0710     2.4690     0.4430 nb         1 HA6      -0.638000
      3 O1           1.6490    -1.1970     0.8400 os         1 HA6      -0.295700
      4 C01         -1.6850    -1.5060    -0.5160 c          1 HA6       0.590600
      5 N01         -0.4140    -1.7330    -0.1310 ns         1 HA6      -0.430400
      6 O01         -2.3590    -2.3590    -1.0730 o          1 HA6      -0.515000
      7 C02          0.3800    -0.8160     0.4780 cc         1 HA6       0.697200
      8 N02          4.6050     0.3500    -0.1680 na         1 HA6       0.007800
      9 C03          2.6310    -0.4080     0.2710 cc         1 HA6      -0.024900
     10 N03          3.7520     1.0460    -1.0470 nd         1 HA6      -0.506800
     11 C04          3.9200    -0.5680     0.6490 cd         1 HA6      -0.150000
     12 N04          0.0190     0.4230     0.8250 nd         1 HA6      -0.680100
     13 C05          2.5610     0.5540    -0.7540 cc         1 HA6       0.259900
     14 C06         -1.3050     0.7570     0.4590 ca         1 HA6       0.160400
     15 C07         -1.8150     2.0520     0.7540 ca         1 HA6       0.345900
     16 C08         -3.8820     1.5880    -0.1870 ca         1 HA6       0.301900
     17 C09         -3.4770     0.2850    -0.5220 ca         1 HA6      -0.085000
     18 HN01        -0.0370    -2.6480    -0.3190 hn         1 HA6       0.345500
     19 H04          4.3930    -1.2150     1.3800 h4         1 HA6       0.169000
     20 H05          1.6940     0.9010    -1.3030 h4         1 HA6       0.052100
     21 H07         -1.1850     2.7830     1.2600 h4         1 HA6       0.039100
     22 H08         -4.8850     1.9380    -0.4290 h4         1 HA6       0.026100
     23 H09         -4.1760    -0.3780    -1.0270 ha         1 HA6       0.143000
     24 HN02         5.6110     0.5200    -0.1630 hn         1 HA6       0.381000
@<TRIPOS>BOND
     1     1     4 1   
     2     1    14 ar  
     3     1    17 ar  
     4     2    15 ar  
     5     2    16 ar  
     6     3     7 1   
     7     3     9 1   
     8     4     5 1   
     9     4     6 2   
    10     5     7 1   
    11     5    18 1   
    12     7    12 2   
    13     8    10 1   
    14     8    11 1   
    15     8    24 1   
    16     9    11 2   
    17     9    13 1   
    18    10    13 2   
    19    11    19 1   
    20    12    14 1   
    21    13    20 1   
    22    14    15 ar  
    23    15    21 1   
    24    16    17 ar  
    25    16    22 1   
    26    17    23 1   
@<TRIPOS>SUBSTRUCTURE
     1 HA6         1 TEMP              0 ****  ****    0 ROOT
