@<TRIPOS>MOLECULE
HA7
   20    21     1     0     0
SMALL
abcg2


@<TRIPOS>ATOM
      1 C1          63.2760    66.4790    50.8170 cc         1 HA7       0.508300
      2 N1          62.0980    66.1440    51.2630 nd         1 HA7      -0.510300
      3 O1          61.8640    66.9780    52.3360 os         1 HA7      -0.026700
      4 C2          63.8600    67.5280    51.5690 cc         1 HA7      -0.295300
      5 N2          64.0280    69.8050    53.1400 n7         1 HA7      -0.813400
      6 C3          65.1320    68.2920    51.4570 c6         1 HA7      -0.014100
      7 C4          65.2670    69.1800    52.7050 c6         1 HA7       0.156800
      8 O4          63.8530    65.8930    49.7740 oh         1 HA7      -0.644300
      9 C5          63.0060    68.8530    53.5350 c6         1 HA7      -0.035800
     10 C6          62.9130    67.7840    52.5000 cd         1 HA7       0.247300
     11 C7          63.2300    68.2350    54.9530 c          1 HA7       0.737000
     12 HN2         63.6670    70.3890    52.3950 hn         1 HA7       0.373000
     13 H3          65.9980    67.6280    51.3810 hc         1 HA7       0.030700
     14 H3A         65.1290    68.9030    50.5490 hc         1 HA7       0.030700
     15 H4          65.6480    68.5830    53.5360 h1         1 HA7       0.056700
     16 H4A         66.0060    69.9620    52.5200 h1         1 HA7       0.056700
     17 H5          62.0510    69.3900    53.5870 h1         1 HA7       0.067700
     18 H8          63.2800    65.2040    49.4130 ho         1 HA7       0.466000
     19 O2          62.5200    67.2440    55.2000 o          1 HA7      -0.695000
     20 O3          64.0540    68.7880    55.6940 o          1 HA7      -0.695000
@<TRIPOS>BOND
     1     1     2 2   
     2     1     4 1   
     3     1     8 1   
     4     2     3 1   
     5     3    10 1   
     6     4     6 1   
     7     4    10 2   
     8     5     7 1   
     9     5     9 1   
    10     5    12 1   
    11     6     7 1   
    12     6    13 1   
    13     6    14 1   
    14     7    15 1   
    15     7    16 1   
    16     8    18 1   
    17     9    10 1   
    18     9    11 1   
    19     9    17 1   
    20    11    19 1   
    21    11    20 1   
@<TRIPOS>SUBSTRUCTURE
     1 HA7         1 TEMP              0 ****  ****    0 ROOT
