@<TRIPOS>MOLECULE
HA7
   20    21     1     0     0
SMALL
No Charge or Current Charge


@<TRIPOS>ATOM
      1 C1          63.4190    66.4310    50.8430 cc         1 HA7       0.508300
      2 N1          62.2770    65.9160    51.2460 nd         1 HA7      -0.510300
      3 O1          61.9150    66.7720    52.3660 os         1 HA7      -0.026700
      4 C2          63.8580    67.5370    51.5730 cc         1 HA7      -0.295300
      5 N2          63.9660    69.8770    53.1590 n7         1 HA7      -0.813400
      6 C3          65.0890    68.3950    51.4130 c6         1 HA7      -0.014100
      7 C4          65.2630    69.2870    52.6870 c6         1 HA7       0.156800
      8 O4          64.0980    65.9340    49.8110 oh         1 HA7      -0.644300
      9 C5          62.9310    68.8150    53.5440 c6         1 HA7      -0.035800
     10 C6          62.9030    67.7150    52.5060 cd         1 HA7       0.247300
     11 C7          63.1060    68.1850    54.9700 c          1 HA7       0.737000
     12 HN2         63.5900    70.4340    52.3810 hn         1 HA7       0.373000
     13 H3          65.9890    67.7840    51.2600 hc         1 HA7       0.030700
     14 H3A         64.9890    69.0360    50.5270 hc         1 HA7       0.030700
     15 H4          65.6970    68.6770    53.4940 h1         1 HA7       0.056700
     16 H4A         65.9820    70.0910    52.4710 h1         1 HA7       0.056700
     17 H5          61.9420    69.2950    53.5620 h1         1 HA7       0.067700
     18 H8          63.5430    65.1830    49.5170 ho         1 HA7       0.466000
     19 O2          62.3400    68.5530    55.8520 o          1 HA7      -0.695000
     20 O3          63.9830    67.3470    55.1440 o          1 HA7      -0.695000
@<TRIPOS>BOND
     1     1     2 2   
     2     1     4 1   
     3     1     8 1   
     4     2     3 1   
     5     3    10 1   
     6     4     6 1   
     7     4    10 2   
     8     5     7 1   
     9     5     9 1   
    10     5    12 1   
    11     6     7 1   
    12     6    13 1   
    13     6    14 1   
    14     7    15 1   
    15     7    16 1   
    16     8    18 1   
    17     9    10 1   
    18     9    11 1   
    19     9    17 1   
    20    11    19 1   
    21    11    20 1   
@<TRIPOS>SUBSTRUCTURE
     1 HA7         1 TEMP              0 ****  ****    0 ROOT
