@<TRIPOS>MOLECULE
HA8
   23    24     1     0     0
SMALL
bcc


@<TRIPOS>ATOM
      1 C14          5.2450     0.0240     0.8150 c2         1 HA8      -0.202000
      2 C13          4.1510     0.6940     0.4750 c2         1 HA8      -0.176200
      3 C12          3.3990     0.4940    -0.8120 c3         1 HA8      -0.110500
      4 C11          2.0940    -0.1750    -0.5380 c2         1 HA8       0.503200
      5 N1          -0.2910    -1.5950    -0.7210 nb         1 HA8      -0.747000
      6 C2          -1.4580    -2.2020    -0.4840 ca         1 HA8       0.644900
      7 N3          -2.5730    -1.6600    -0.0340 nb         1 HA8      -0.641000
      8 C4          -2.4860    -0.3510     0.1920 ca         1 HA8       0.556300
      9 C5          -1.3120     0.3770    -0.0330 ca         1 HA8      -0.309800
     10 C6          -0.1870    -0.2930    -0.4950 ca         1 HA8       0.658300
     11 N10          0.9840     0.4050    -0.7450 ne         1 HA8      -0.683700
     12 N7          -1.6180     1.6620     0.3040 na         1 HA8      -0.231300
     13 C8          -2.9090     1.6550     0.6990 cc         1 HA8       0.433700
     14 N9          -3.4700     0.4730     0.6500 nd         1 HA8      -0.637700
     15 H14          5.7400     0.1980     1.7610 ha         1 HA8       0.116500
     16 H14A         5.6850    -0.7190     0.1610 ha         1 HA8       0.116500
     17 H13          3.7350     1.4290     1.1570 ha         1 HA8       0.124000
     18 H12          3.2220     1.4490    -1.3110 hc         1 HA8       0.071200
     19 H12A         3.9780    -0.1460    -1.4820 hc         1 HA8       0.071200
     20 H11          2.1500    -1.1850    -0.1250 h4         1 HA8      -0.004200
     21 HN7         -1.0150     2.4690     0.2560 hn         1 HA8       0.323700
     22 H8          -3.4000     2.5620     1.0170 h5         1 HA8       0.068800
     23 H2          -1.4830    -3.2660    -0.6900 h5         1 HA8       0.053100
@<TRIPOS>BOND
     1     1     2 2   
     2     1    15 1   
     3     1    16 1   
     4     2     3 1   
     5     2    17 1   
     6     3     4 1   
     7     3    18 1   
     8     3    19 1   
     9     4    11 2   
    10     4    20 1   
    11     5     6 ar  
    12     5    10 ar  
    13     6     7 ar  
    14     6    23 1   
    15     7     8 ar  
    16     8     9 ar  
    17     8    14 1   
    18     9    10 ar  
    19     9    12 1   
    20    10    11 1   
    21    12    13 1   
    22    12    21 1   
    23    13    14 2   
    24    13    22 1   
@<TRIPOS>SUBSTRUCTURE
     1 HA8         1 TEMP              0 ****  ****    0 ROOT
