@<TRIPOS>MOLECULE
HA8
   23    24     1     0     0
SMALL
No Charge or Current Charge


@<TRIPOS>ATOM
      1 C14          5.2190     0.6510     0.9300 c2         1 HA8      -0.302000
      2 C13          3.9820     0.8040     0.4330 c2         1 HA8      -0.226200
      3 C12          3.4590     0.1400    -0.8320 c3         1 HA8      -0.110500
      4 C11          2.1170    -0.5360    -0.6260 c2         1 HA8       0.503200
      5 N1          -0.5030    -1.7310    -0.9520 nb         1 HA8      -0.221000
      6 C2          -1.7600    -2.2030    -0.7490 ca         1 HA8       0.118900
      7 N3          -2.8000    -1.5350    -0.1930 nb         1 HA8      -0.115000
      8 C4          -2.5430    -0.2700     0.1910 ca         1 HA8       0.228000
      9 C5          -1.2990     0.2750     0.0210 ca         1 HA8      -0.179200
     10 C6          -0.2520    -0.4650    -0.5500 ca         1 HA8       0.330000
     11 N10          1.0060     0.1370    -0.7380 ne         1 HA8      -0.683700
     12 N7          -1.3400     1.5560     0.4920 na         1 HA8      -0.281600
     13 C8          -2.6330     1.7720     0.9520 cc         1 HA8       0.433700
     14 N9          -3.3940     0.6670     0.7800 nd         1 HA8      -0.637700
     15 H14          5.5340     1.1590     1.8430 ha         1 HA8       0.166500
     16 H14A         5.9620     0.0150     0.4450 ha         1 HA8       0.166500
     17 H13          3.2590     1.4510     0.9390 ha         1 HA8       0.174000
     18 H12          3.3670     0.8880    -1.6280 hc         1 HA8       0.071200
     19 H12A         4.1770    -0.6030    -1.2000 hc         1 HA8       0.071200
     20 H11          2.1090    -1.5900    -0.3610 h4         1 HA8      -0.004200
     21 HN7         -0.5840     2.2280     0.5040 hn         1 HA8       0.374000
     22 H8          -2.9480     2.7150     1.3840 h5         1 HA8       0.068800
     23 H2          -1.9540    -3.2250    -1.0690 h5         1 HA8       0.053100
@<TRIPOS>BOND
     1     1     2 2   
     2     1    15 1   
     3     1    16 1   
     4     2     3 1   
     5     2    17 1   
     6     3     4 1   
     7     3    18 1   
     8     3    19 1   
     9     4    11 2   
    10     4    20 1   
    11     5     6 ar  
    12     5    10 ar  
    13     6     7 ar  
    14     6    23 1   
    15     7     8 ar  
    16     8     9 ar  
    17     8    14 1   
    18     9    10 ar  
    19     9    12 1   
    20    10    11 1   
    21    12    13 1   
    22    12    21 1   
    23    13    14 2   
    24    13    22 1   
@<TRIPOS>SUBSTRUCTURE
     1 HA8         1 TEMP              0 ****  ****    0 ROOT
