@<TRIPOS>MOLECULE
HAB
   27    28     1     0     0
SMALL
No Charge or Current Charge


@<TRIPOS>ATOM
      1 C1           0.8750    -0.2960    -1.6700 ca         1 HAB       0.076400
      2 C2          -0.1440    -0.0620    -2.6260 ca         1 HAB      -0.066600
      3 C3           0.2110     0.1520    -3.9770 ca         1 HAB      -0.107000
      4 C4           1.5560     0.1190    -4.3770 ca         1 HAB      -0.116000
      5 C5           2.5630    -0.1250    -3.4310 ca         1 HAB      -0.157000
      6 C6           2.2220    -0.3300    -2.0840 ca         1 HAB      -0.105000
      7 C7           0.2440     0.3720     1.7720 ca         1 HAB       0.075400
      8 C8           1.2800     0.2280     2.7130 ca         1 HAB      -0.049000
      9 C9           0.9780     0.0430     4.0760 ca         1 HAB      -0.190000
     10 C10         -0.3610     0.0040     4.4970 ca         1 HAB       0.125100
     11 C11         -1.3970     0.1500     3.5620 ca         1 HAB      -0.190000
     12 C12         -1.0970     0.3340     2.2000 ca         1 HAB      -0.049000
     13 C           -1.6010    -0.0270    -2.2280 c          1 HAB       0.719600
     14 N1           0.5760    -0.4850    -0.3060 ne         1 HAB      -0.122400
     15 N2           0.5480     0.5640     0.4030 nf         1 HAB      -0.252400
     16 O           -2.2570     0.9570    -2.5430 o          1 HAB      -0.709000
     17 OXT         -2.0890    -1.0200    -1.7030 o          1 HAB      -0.709000
     18 O4          -0.6600    -0.1740     5.8120 oh         1 HAB      -0.542100
     19 H3          -0.5650     0.3390    -4.7160 ha         1 HAB       0.124000
     20 H4           1.8180     0.2810    -5.4210 ha         1 HAB       0.088000
     21 H5           3.6050    -0.1520    -3.7390 ha         1 HAB       0.088000
     22 H6           3.0070    -0.5110    -1.3530 ha         1 HAB       0.107000
     23 H2           2.3170     0.2590     2.3850 ha         1 HAB       0.142500
     24 H1           1.7870    -0.0680     4.7940 ha         1 HAB       0.111500
     25 H7          -2.4340     0.1200     3.8900 ha         1 HAB       0.111500
     26 H8          -1.9010     0.4470     1.4750 ha         1 HAB       0.142500
     27 HO4          0.1800    -0.2560     6.3120 ho         1 HAB       0.453000
@<TRIPOS>BOND
     1     1     2 ar  
     2     1     6 ar  
     3     1    14 1   
     4     2     3 ar  
     5     2    13 1   
     6     3     4 ar  
     7     3    19 1   
     8     4     5 ar  
     9     4    20 1   
    10     5     6 ar  
    11     5    21 1   
    12     6    22 1   
    13     7     8 ar  
    14     7    12 ar  
    15     7    15 1   
    16     8     9 ar  
    17     8    23 1   
    18     9    10 ar  
    19     9    24 1   
    20    10    11 ar  
    21    10    18 1   
    22    11    12 ar  
    23    11    25 1   
    24    12    26 1   
    25    13    16 1   
    26    13    17 1   
    27    14    15 2   
    28    18    27 1   
@<TRIPOS>SUBSTRUCTURE
     1 HAB         1 TEMP              0 ****  ****    0 ROOT
