@<TRIPOS>MOLECULE
HAB
   27    28     1     0     0
SMALL
abcg2


@<TRIPOS>ATOM
      1 C1           0.6880    -0.0500    -1.6870 ca         1 HAB       0.076400
      2 C2          -0.2640     0.0160    -2.7110 ca         1 HAB      -0.066600
      3 C3           0.1800    -0.0080    -4.0300 ca         1 HAB      -0.107000
      4 C4           1.5330    -0.0650    -4.3330 ca         1 HAB      -0.116000
      5 C5           2.4700    -0.1360    -3.3080 ca         1 HAB      -0.157000
      6 C6           2.0480    -0.1370    -1.9900 ca         1 HAB      -0.105000
      7 C7           0.5000     0.1510     1.8210 ca         1 HAB       0.075400
      8 C8           1.4290     0.2850     2.8480 ca         1 HAB      -0.049000
      9 C9           1.0370     0.2130     4.1740 ca         1 HAB      -0.190000
     10 C10         -0.3070     0.0270     4.4880 ca         1 HAB       0.125100
     11 C11         -1.2500    -0.0850     3.4600 ca         1 HAB      -0.190000
     12 C12         -0.8490    -0.0270     2.1430 ca         1 HAB      -0.049000
     13 C           -1.7550     0.1550    -2.4300 c          1 HAB       0.719600
     14 N1           0.2030    -0.1250    -0.3690 ne         1 HAB      -0.122400
     15 N2           0.9950     0.2400     0.5100 nf         1 HAB      -0.252400
     16 O           -2.0850     1.0030    -1.5850 o          1 HAB      -0.709000
     17 OXT         -2.5020    -0.5750    -3.1090 o          1 HAB      -0.709000
     18 O4          -0.7560    -0.0420     5.7510 oh         1 HAB      -0.542100
     19 H3          -0.5450     0.0300    -4.8320 ha         1 HAB       0.124000
     20 H4           1.8560    -0.0710    -5.3660 ha         1 HAB       0.088000
     21 H5           3.5260    -0.2060    -3.5350 ha         1 HAB       0.088000
     22 H6           2.7690    -0.2250    -1.1870 ha         1 HAB       0.107000
     23 H2           2.4720     0.4380     2.6000 ha         1 HAB       0.142500
     24 H1           1.7760     0.3070     4.9610 ha         1 HAB       0.111500
     25 H7          -2.2970    -0.2090     3.7070 ha         1 HAB       0.111500
     26 H8          -1.5820    -0.0980     1.3500 ha         1 HAB       0.142500
     27 HO4         -0.0290     0.0570     6.3770 ho         1 HAB       0.453000
@<TRIPOS>BOND
     1     1     2 ar  
     2     1     6 ar  
     3     1    14 1   
     4     2     3 ar  
     5     2    13 1   
     6     3     4 ar  
     7     3    19 1   
     8     4     5 ar  
     9     4    20 1   
    10     5     6 ar  
    11     5    21 1   
    12     6    22 1   
    13     7     8 ar  
    14     7    12 ar  
    15     7    15 1   
    16     8     9 ar  
    17     8    23 1   
    18     9    10 ar  
    19     9    24 1   
    20    10    11 ar  
    21    10    18 1   
    22    11    12 ar  
    23    11    25 1   
    24    12    26 1   
    25    13    16 1   
    26    13    17 1   
    27    14    15 2   
    28    18    27 1   
@<TRIPOS>SUBSTRUCTURE
     1 HAB         1 TEMP              0 ****  ****    0 ROOT
