@<TRIPOS>MOLECULE
HAE
   10     9     1     0     0
SMALL
abcg2


@<TRIPOS>ATOM
      1 C1          -0.6140    -0.0090     1.7940 c3         1 HAE      -0.182100
      2 C2           0.0310    -0.2040     0.4470 c          1 HAE       0.601100
      3 O2           1.1810    -0.5810     0.3060 o          1 HAE      -0.569100
      4 N           -0.7790     0.1060    -0.5840 ns         1 HAE      -0.389400
      5 O           -0.3990    -0.1930    -1.8580 oh         1 HAE      -0.428100
      6 H11         -0.6410    -0.9640     2.3200 hc         1 HAE       0.063367
      7 H12         -0.0120     0.6780     2.3870 hc         1 HAE       0.063367
      8 H13         -1.6290     0.3810     1.7400 hc         1 HAE       0.063367
      9 HN          -1.7740     0.2340    -0.4630 hn         1 HAE       0.330500
     10 HO          -0.0770     0.6330    -2.2420 ho         1 HAE       0.446000
@<TRIPOS>BOND
     1     1     2 1   
     2     1     6 1   
     3     1     7 1   
     4     1     8 1   
     5     2     3 2   
     6     2     4 1   
     7     4     5 1   
     8     4     9 1   
     9     5    10 1   
@<TRIPOS>SUBSTRUCTURE
     1 HAE         1 TEMP              0 ****  ****    0 ROOT
