@<TRIPOS>MOLECULE
HAE
   10     9     1     0     0
SMALL
No Charge or Current Charge


@<TRIPOS>ATOM
      1 C1          -0.5900     0.0080     1.8580 c3         1 HAE      -0.182100
      2 C2           0.1300    -0.0100     0.5150 c          1 HAE       0.601100
      3 O2           1.3510    -0.0240     0.4270 o          1 HAE      -0.569100
      4 N           -0.7050     0.0020    -0.5960 ns         1 HAE      -0.389400
      5 O           -0.1900    -0.2710    -1.9220 oh         1 HAE      -0.428100
      6 H11         -1.2820    -0.8400     1.9040 hc         1 HAE       0.063367
      7 H12          0.1010     0.0120     2.7080 hc         1 HAE       0.063367
      8 H13         -1.2720     0.8660     1.8860 hc         1 HAE       0.063367
      9 HN          -1.7070    -0.1300    -0.4650 hn         1 HAE       0.330500
     10 HO          -0.5500     0.4680    -2.4680 ho         1 HAE       0.446000
@<TRIPOS>BOND
     1     1     2 1   
     2     1     6 1   
     3     1     7 1   
     4     1     8 1   
     5     2     3 2   
     6     2     4 1   
     7     4     5 1   
     8     4     9 1   
     9     5    10 1   
@<TRIPOS>SUBSTRUCTURE
     1 HAE         1 TEMP              0 ****  ****    0 ROOT
