@<TRIPOS>MOLECULE
HAF
   65    68     1     0     0
SMALL
abcg2


@<TRIPOS>ATOM
      1 C15        -31.4850    14.5700    11.3670 cc         1 HAF      -0.353400
      2 C20        -34.3030    15.2990    13.4440 c          1 HAF       0.659100
      3 C24        -37.2330    15.2680    14.2670 c3         1 HAF      -0.108100
      4 C26        -35.8870    17.1810    15.2190 c3         1 HAF      -0.108100
      5 C28        -29.2830    17.3400     2.6980 ca         1 HAF      -0.105000
      6 C1         -30.8170    20.4280     6.8970 c3         1 HAF       0.156100
      7 C3         -30.6240    18.9060     5.0590 c6         1 HAF       0.165800
      8 C4         -31.0140    17.5220     4.5370 c6         1 HAF      -0.013400
      9 C5         -30.4170    16.4370     5.4330 c6         1 HAF      -0.084400
     10 C6         -30.7970    16.6880     6.8870 c6         1 HAF       0.240500
     11 C7         -30.4120    18.1050     7.3020 c6         1 HAF       0.144800
     12 C9         -30.6000    15.3470     8.9370 cc         1 HAF       0.738800
     13 C11        -32.1510    15.4270    10.5540 cd         1 HAF       0.211400
     14 C12        -33.4220    15.8840    11.1930 c5         1 HAF       0.165200
     15 C14        -32.2080    14.3340    12.6480 c5         1 HAF       0.205200
     16 C16        -30.2390    14.0320    10.9560 c          1 HAF       0.603200
     17 C19        -28.5980    13.9560     9.1280 c3         1 HAF       0.054300
     18 C23        -36.3790    16.4910    13.9530 c3         1 HAF       0.224000
     19 C25        -37.1800    17.4740    13.1080 c3         1 HAF      -0.108100
     20 C27        -30.6210    17.3580     3.0910 ca         1 HAF      -0.081300
     21 C29        -28.9350    17.2100     1.3600 ca         1 HAF      -0.109000
     22 C30        -29.9200    17.0940     0.3880 ca         1 HAF      -0.107000
     23 C31        -31.2550    17.1110     0.7660 ca         1 HAF      -0.109000
     24 C32        -31.5990    17.2430     2.1050 ca         1 HAF      -0.105000
     25 N2         -31.0420    19.0770     6.4360 n3         1 HAF      -0.712600
     26 N8         -30.1420    15.7020     7.7280 nu         1 HAF      -0.899400
     27 N10        -31.7480    15.8400     9.3510 nd         1 HAF      -0.705300
     28 N13        -33.3830    15.1820    12.4670 n          1 HAF      -0.426800
     29 N18        -29.8470    14.4680     9.6720 n          1 HAF      -0.345300
     30 O17        -29.5370    13.2690    11.6030 o          1 HAF      -0.545000
     31 O21        -34.2320    14.7000    14.5000 o          1 HAF      -0.548000
     32 O22        -35.2670    16.1440    13.0850 os         1 HAF      -0.478100
     33 H243       -38.1400    15.5900    14.7780 hc         1 HAF       0.048922
     34 H241       -37.5350    14.7570    13.3510 hc         1 HAF       0.048922
     35 H242       -36.7220    14.5560    14.9120 hc         1 HAF       0.048922
     36 H262       -36.7440    17.5760    15.7660 hc         1 HAF       0.048922
     37 H263       -35.3530    16.5040    15.8820 hc         1 HAF       0.048922
     38 H261       -35.2330    18.0210    14.9770 hc         1 HAF       0.048922
     39 H281       -28.4980    17.4300     3.4390 ha         1 HAF       0.111000
     40 H012       -31.1880    20.5420     7.9170 h1         1 HAF       0.033700
     41 H011       -29.7550    20.7190     6.8930 h1         1 HAF       0.033700
     42 H013       -31.3570    21.1340     6.2650 h1         1 HAF       0.033700
     43 H032       -29.5340    19.0460     4.9440 h1         1 HAF       0.038200
     44 H031       -31.1080    19.6730     4.4480 h1         1 HAF       0.038200
     45 H041       -32.1050    17.4480     4.6010 hc         1 HAF       0.070700
     46 H052       -30.7610    15.4500     5.1160 hc         1 HAF       0.048200
     47 H051       -29.3240    16.4450     5.3440 hc         1 HAF       0.048200
     48 H061       -31.8750    16.5720     7.0020 h1         1 HAF       0.103700
     49 H071       -29.3090    18.1920     7.2910 h1         1 HAF       0.040200
     50 H072       -30.7390    18.2790     8.3300 h1         1 HAF       0.040200
     51 H122       -33.4320    16.9720    11.3110 h1         1 HAF       0.073200
     52 H121       -34.2920    15.6110    10.5880 h1         1 HAF       0.073200
     53 H141       -32.4870    13.2860    12.7920 h1         1 HAF       0.066200
     54 H142       -31.6270    14.6380    13.5250 h1         1 HAF       0.066200
     55 H192       -28.1770    13.2460     9.8290 h1         1 HAF       0.058700
     56 H193       -28.7730    13.4450     8.1820 h1         1 HAF       0.058700
     57 H191       -27.8760    14.7610     8.9800 h1         1 HAF       0.058700
     58 H253       -38.0620    17.7990    13.6580 hc         1 HAF       0.048922
     59 H252       -36.5920    18.3600    12.8630 hc         1 HAF       0.048922
     60 H251       -37.5150    17.0140    12.1770 hc         1 HAF       0.048922
     61 H291       -27.8900    17.1990     1.0770 ha         1 HAF       0.113500
     62 H301       -29.6480    16.9910    -0.6540 ha         1 HAF       0.114000
     63 H311       -32.0330    17.0210     0.0180 ha         1 HAF       0.113500
     64 H321       -32.6440    17.2570     2.3910 ha         1 HAF       0.111000
     65 H081       -29.2150    15.4270     7.4490 hn         1 HAF       0.496000
@<TRIPOS>BOND
     1     1    13 2   
     2     1    15 1   
     3     1    16 1   
     4     2    28 1   
     5     2    31 2   
     6     2    32 1   
     7     3    18 1   
     8     3    33 1   
     9     3    34 1   
    10     3    35 1   
    11     4    18 1   
    12     4    36 1   
    13     4    37 1   
    14     4    38 1   
    15     5    20 ar  
    16     5    21 ar  
    17     5    39 1   
    18     6    25 1   
    19     6    40 1   
    20     6    41 1   
    21     6    42 1   
    22     7     8 1   
    23     7    25 1   
    24     7    43 1   
    25     7    44 1   
    26     8     9 1   
    27     8    20 1   
    28     8    45 1   
    29     9    10 1   
    30     9    46 1   
    31     9    47 1   
    32    10    11 1   
    33    10    26 1   
    34    10    48 1   
    35    11    25 1   
    36    11    49 1   
    37    11    50 1   
    38    12    26 1   
    39    12    27 2   
    40    12    29 1   
    41    13    14 1   
    42    13    27 1   
    43    14    28 1   
    44    14    51 1   
    45    14    52 1   
    46    15    28 1   
    47    15    53 1   
    48    15    54 1   
    49    16    29 1   
    50    16    30 2   
    51    17    29 1   
    52    17    55 1   
    53    17    56 1   
    54    17    57 1   
    55    18    19 1   
    56    18    32 1   
    57    19    58 1   
    58    19    59 1   
    59    19    60 1   
    60    20    24 ar  
    61    21    22 ar  
    62    21    61 1   
    63    22    23 ar  
    64    22    62 1   
    65    23    24 ar  
    66    23    63 1   
    67    24    64 1   
    68    26    65 1   
@<TRIPOS>SUBSTRUCTURE
     1 HAF         1 TEMP              0 ****  ****    0 ROOT
