@<TRIPOS>MOLECULE
HAF
   65    68     1     0     0
SMALL
No Charge or Current Charge


@<TRIPOS>ATOM
      1 C15        -31.5390    14.6190    11.3290 cc         1 HAF      -0.353400
      2 C20        -34.3760    15.2740    13.6060 c          1 HAF       0.659100
      3 C24        -37.3200    15.1380    14.3650 c3         1 HAF      -0.108100
      4 C26        -35.9860    17.0590    15.4720 c3         1 HAF      -0.108100
      5 C28        -29.1930    17.4160     2.5690 ca         1 HAF      -0.105000
      6 C1         -30.6320    20.6470     6.7720 c3         1 HAF       0.156100
      7 C3         -30.5200    19.0220     4.9180 c6         1 HAF       0.165800
      8 C4         -30.9510    17.6120     4.4260 c6         1 HAF      -0.013400
      9 C5         -30.3880    16.5160     5.3700 c6         1 HAF      -0.084400
     10 C6         -30.8110    16.7850     6.8340 c6         1 HAF       0.240500
     11 C7         -30.4030    18.2340     7.2520 c6         1 HAF       0.144800
     12 C9         -30.6350    15.3770     8.9370 cc         1 HAF       0.738800
     13 C11        -32.2190    15.5270    10.5730 cd         1 HAF       0.211400
     14 C12        -33.4610    15.9560    11.3210 c5         1 HAF       0.165200
     15 C14        -32.2290    14.3440    12.6350 c5         1 HAF       0.205200
     16 C16        -30.2990    14.0140    10.8870 c          1 HAF       0.603200
     17 C19        -28.6090    13.8870     9.0760 c3         1 HAF       0.054300
     18 C23        -36.4960    16.4330    14.1480 c3         1 HAF       0.224000
     19 C25        -37.3370    17.4670    13.3670 c3         1 HAF      -0.108100
     20 C27        -30.5470    17.3650     2.9640 ca         1 HAF      -0.081300
     21 C29        -28.8340    17.1880     1.2290 ca         1 HAF      -0.109000
     22 C30        -29.8230    16.9070     0.2730 ca         1 HAF      -0.107000
     23 C31        -31.1730    16.8530     0.6570 ca         1 HAF      -0.109000
     24 C32        -31.5340    17.0800     1.9970 ca         1 HAF      -0.105000
     25 N2         -30.9450    19.2730     6.3240 n3         1 HAF      -0.712600
     26 N8         -30.1770    15.7740     7.7110 nu         1 HAF      -0.899400
     27 N10        -31.7690    15.9340     9.3300 nd         1 HAF      -0.705300
     28 N13        -33.4240    15.1980    12.5900 n          1 HAF      -0.426800
     29 N18        -29.8760    14.4460     9.6320 n          1 HAF      -0.345300
     30 O17        -29.6910    13.2000    11.5670 o          1 HAF      -0.545000
     31 O21        -34.2950    14.6240    14.6370 o          1 HAF      -0.548000
     32 O22        -35.3750    16.1570    13.2760 os         1 HAF      -0.478100
     33 H243       -38.2860    15.3730    14.8260 hc         1 HAF       0.048922
     34 H241       -37.5140    14.6360    13.4090 hc         1 HAF       0.048922
     35 H242       -36.8090    14.4330    15.0290 hc         1 HAF       0.048922
     36 H262       -36.8220    17.4820    16.0400 hc         1 HAF       0.048922
     37 H263       -35.4990    16.3190    16.1150 hc         1 HAF       0.048922
     38 H261       -35.2710    17.8670    15.2700 hc         1 HAF       0.048922
     39 H281       -28.4150    17.6300     3.2980 ha         1 HAF       0.111000
     40 H012       -31.0120    20.8200     7.7880 h1         1 HAF       0.033700
     41 H011       -29.5470    20.8200     6.7770 h1         1 HAF       0.033700
     42 H013       -31.0960    21.3870     6.1070 h1         1 HAF       0.033700
     43 H032       -29.4280    19.1210     4.8330 h1         1 HAF       0.038200
     44 H031       -30.9630    19.7760     4.2510 h1         1 HAF       0.038200
     45 H041       -32.0480    17.5720     4.4910 hc         1 HAF       0.070700
     46 H052       -30.7500    15.5290     5.0520 hc         1 HAF       0.048200
     47 H051       -29.2920    16.4900     5.2990 hc         1 HAF       0.048200
     48 H061       -31.9100    16.7170     6.8840 h1         1 HAF       0.103700
     49 H071       -29.3050    18.2970     7.2840 h1         1 HAF       0.040200
     50 H072       -30.7640    18.4190     8.2740 h1         1 HAF       0.040200
     51 H122       -33.4340    17.0400    11.4940 h1         1 HAF       0.073200
     52 H121       -34.3530    15.7140    10.7290 h1         1 HAF       0.073200
     53 H141       -32.5000    13.2820    12.7200 h1         1 HAF       0.066200
     54 H142       -31.5820    14.6050    13.4840 h1         1 HAF       0.066200
     55 H192       -28.1460    13.1580     9.7520 h1         1 HAF       0.058700
     56 H193       -28.8140    13.3790     8.1240 h1         1 HAF       0.058700
     57 H191       -27.8880    14.6970     8.9090 h1         1 HAF       0.058700
     58 H253       -38.2270    17.7570    13.9370 hc         1 HAF       0.048922
     59 H252       -36.7520    18.3730    13.1660 hc         1 HAF       0.048922
     60 H251       -37.6680    17.0540    12.4060 hc         1 HAF       0.048922
     61 H291       -27.7880    17.2300     0.9330 ha         1 HAF       0.113500
     62 H301       -29.5440    16.7310    -0.7640 ha         1 HAF       0.114000
     63 H311       -31.9400    16.6350    -0.0820 ha         1 HAF       0.113500
     64 H321       -32.5830    17.0350     2.2800 ha         1 HAF       0.111000
     65 H081       -29.3070    15.3430     7.4240 hn         1 HAF       0.496000
@<TRIPOS>BOND
     1     1    13 2   
     2     1    15 1   
     3     1    16 1   
     4     2    28 1   
     5     2    31 2   
     6     2    32 1   
     7     3    18 1   
     8     3    33 1   
     9     3    34 1   
    10     3    35 1   
    11     4    18 1   
    12     4    36 1   
    13     4    37 1   
    14     4    38 1   
    15     5    20 ar  
    16     5    21 ar  
    17     5    39 1   
    18     6    25 1   
    19     6    40 1   
    20     6    41 1   
    21     6    42 1   
    22     7     8 1   
    23     7    25 1   
    24     7    43 1   
    25     7    44 1   
    26     8     9 1   
    27     8    20 1   
    28     8    45 1   
    29     9    10 1   
    30     9    46 1   
    31     9    47 1   
    32    10    11 1   
    33    10    26 1   
    34    10    48 1   
    35    11    25 1   
    36    11    49 1   
    37    11    50 1   
    38    12    26 1   
    39    12    27 2   
    40    12    29 1   
    41    13    14 1   
    42    13    27 1   
    43    14    28 1   
    44    14    51 1   
    45    14    52 1   
    46    15    28 1   
    47    15    53 1   
    48    15    54 1   
    49    16    29 1   
    50    16    30 2   
    51    17    29 1   
    52    17    55 1   
    53    17    56 1   
    54    17    57 1   
    55    18    19 1   
    56    18    32 1   
    57    19    58 1   
    58    19    59 1   
    59    19    60 1   
    60    20    24 ar  
    61    21    22 ar  
    62    21    61 1   
    63    22    23 ar  
    64    22    62 1   
    65    23    24 ar  
    66    23    63 1   
    67    24    64 1   
    68    26    65 1   
@<TRIPOS>SUBSTRUCTURE
     1 HAF         1 TEMP              0 ****  ****    0 ROOT
