@<TRIPOS>MOLECULE
HAG
   62    62     1     0     0
SMALL
No Charge or Current Charge


@<TRIPOS>ATOM
      1 C1          -4.7680    -0.4610    -1.6150 c          1 HAG       0.726000
      2 C2           3.5260     0.5350    -1.8660 c          1 HAG       0.585100
      3 C3           4.3380    -2.1360    -4.5120 c          1 HAG       0.714000
      4 N1          -3.8440    -1.1520    -3.9810 n8         1 HAG      -0.994200
      5 CA1         -3.5470    -0.9220    -2.5210 c3         1 HAG       0.021500
      6 O11         -5.1410    -1.2060    -0.7180 o          1 HAG      -0.738500
      7 O12         -5.3360     0.5910    -1.8870 o          1 HAG      -0.738500
      8 CB1         -2.3460     0.0500    -2.3660 c3         1 HAG      -0.093400
      9 CG1         -1.0120    -0.4660    -2.9730 c3         1 HAG      -0.157400
     10 CD1          0.1460     0.4920    -2.6730 c          1 HAG       0.605100
     11 OE1          0.2910     1.5560    -3.2570 o          1 HAG      -0.600100
     12 N2           1.0430     0.0450    -1.7300 ns         1 HAG      -0.523900
     13 CA2          2.1640     0.8580    -1.1830 c3         1 HAG       0.044700
     14 CB2          2.2640     0.6980     0.3510 c3         1 HAG       0.055600
     15 SG2          0.6760     1.1700     1.1850 ss         1 HAG      -0.416000
     16 CA3          4.6770    -0.9190    -3.6050 c3         1 HAG      -0.057000
     17 O31          5.2600    -2.8510    -4.8790 o          1 HAG      -0.731000
     18 O32          3.1660    -2.3510    -4.7940 o          1 HAG      -0.731000
     19 C41          1.0840     0.8170     2.9690 c5         1 HAG       0.033300
     20 C42          2.0200     1.9270     3.5040 c5         1 HAG      -0.095400
     21 O42          2.2610     0.6540     5.5960 oh         1 HAG      -0.676000
     22 C43          1.7070     1.8180     5.0130 c5         1 HAG       0.375300
     23 O43          0.2790     1.7100     5.0500 os         1 HAG      -0.492000
     24 C44         -0.1870     1.0300     3.8510 c5         1 HAG       0.185300
     25 C45         -0.9250    -0.2780     4.2230 c3         1 HAG      -0.091400
     26 C46         -2.2020    -0.0710     5.0700 c3         1 HAG      -0.069400
     27 C47         -2.9290    -1.3930     5.3990 c3         1 HAG      -0.077400
     28 C48         -4.2040    -1.1870     6.2460 c3         1 HAG      -0.074400
     29 C49         -4.9300    -2.5050     6.5760 c3         1 HAG      -0.088100
     30 HN11        -4.2160    -0.2820    -4.3800 hn         1 HAG       0.379500
     31 HN12        -2.9610    -1.2970    -4.4830 hn         1 HAG       0.379500
     32 HCA1        -3.2210    -1.8910    -2.1160 h1         1 HAG       0.035700
     33 HB11        -2.1880     0.2310    -1.2950 hc         1 HAG       0.056200
     34 HB12        -2.5990     1.0220    -2.8080 hc         1 HAG       0.056200
     35 HG12        -1.1200    -0.5450    -4.0610 hc         1 HAG       0.052700
     36 HG11        -0.7990    -1.4530    -2.5470 hc         1 HAG       0.052700
     37 HN21         0.8170    -0.8330    -1.2750 hn         1 HAG       0.319500
     38 HCA2         1.9630     1.9160    -1.3950 h1         1 HAG       0.088700
     39 HB21         3.0700     1.3370     0.7340 h1         1 HAG       0.071700
     40 HB22         2.5060    -0.3440     0.5990 h1         1 HAG       0.071700
     41 HN31         2.6020    -0.8700    -3.0280 hn         1 HAG       0.348500
     42 HA31         5.0350    -0.1000    -4.2420 h1         1 HAG       0.032700
     43 HA32         5.4760    -1.2080    -2.9110 h1         1 HAG       0.032700
     44 HC41         1.5080    -0.1890     3.0940 h1         1 HAG       0.084700
     45 H421         1.7540     2.9190     3.1230 hc         1 HAG       0.074700
     46 H422         3.0750     1.7460     3.2740 hc         1 HAG       0.074700
     47 HO42         1.7340     0.5140     6.4100 ho         1 HAG       0.444000
     48 HC43         2.0390     2.7110     5.5610 h2         1 HAG       0.054700
     49 HC44        -0.8960     1.7000     3.3450 h1         1 HAG       0.076700
     50 H451        -0.2410    -0.9440     4.7640 hc         1 HAG       0.054200
     51 H452        -1.1990    -0.8040     3.3000 hc         1 HAG       0.054200
     52 H461        -2.8870     0.5930     4.5290 hc         1 HAG       0.040700
     53 H462        -1.9380     0.4360     6.0060 hc         1 HAG       0.040700
     54 H471        -2.2420    -2.0570     5.9390 hc         1 HAG       0.038700
     55 H472        -3.1970    -1.9010     4.4640 hc         1 HAG       0.038700
     56 H481        -4.8950    -0.5250     5.7090 hc         1 HAG       0.034200
     57 H482        -3.9400    -0.6810     7.1840 hc         1 HAG       0.034200
     58 H491        -5.8250    -2.3080     7.1770 hc         1 HAG       0.028033
     59 H492        -5.2380    -3.0190     5.6580 hc         1 HAG       0.028033
     60 H493        -4.2750    -3.1760     7.1460 hc         1 HAG       0.028033
     61 O2           4.5650     1.1130    -1.5670 o          1 HAG      -0.666100
     62 N3           3.5060    -0.4530    -2.8280 ns         1 HAG      -0.446900
@<TRIPOS>BOND
     1     1     5 1   
     2     1     6 1   
     3     1     7 1   
     4     2    13 1   
     5     2    61 2   
     6     2    62 1   
     7     3    16 1   
     8     3    17 1   
     9     3    18 1   
    10     4     5 1   
    11     4    30 1   
    12     4    31 1   
    13     5     8 1   
    14     5    32 1   
    15     8     9 1   
    16     8    33 1   
    17     8    34 1   
    18     9    10 1   
    19     9    35 1   
    20     9    36 1   
    21    10    11 2   
    22    10    12 1   
    23    12    13 1   
    24    12    37 1   
    25    13    14 1   
    26    13    38 1   
    27    14    15 1   
    28    14    39 1   
    29    14    40 1   
    30    15    19 1   
    31    16    42 1   
    32    16    43 1   
    33    16    62 1   
    34    19    20 1   
    35    19    24 1   
    36    19    44 1   
    37    20    22 1   
    38    20    45 1   
    39    20    46 1   
    40    21    22 1   
    41    21    47 1   
    42    22    23 1   
    43    22    48 1   
    44    23    24 1   
    45    24    25 1   
    46    24    49 1   
    47    25    26 1   
    48    25    50 1   
    49    25    51 1   
    50    26    27 1   
    51    26    52 1   
    52    26    53 1   
    53    27    28 1   
    54    27    54 1   
    55    27    55 1   
    56    28    29 1   
    57    28    56 1   
    58    28    57 1   
    59    29    58 1   
    60    29    59 1   
    61    29    60 1   
    62    41    62 1   
@<TRIPOS>SUBSTRUCTURE
     1 HAG         1 TEMP              0 ****  ****    0 ROOT
