@<TRIPOS>MOLECULE
HAG
   62    62     1     0     0
SMALL
abcg2


@<TRIPOS>ATOM
      1 C1          -4.7930     0.6360    -4.3950 c          1 HAG       0.726000
      2 C2           2.9150     0.7270    -1.7570 c          1 HAG       0.585100
      3 C3           3.7850    -2.4840    -3.4450 c          1 HAG       0.714000
      4 N1          -3.5120    -1.4440    -4.7690 n8         1 HAG      -0.994200
      5 CA1         -3.6970    -0.3190    -3.8680 c3         1 HAG       0.021500
      6 O11         -5.3030     1.4000    -3.5510 o          1 HAG      -0.738500
      7 O12         -5.0470     0.6000    -5.6150 o          1 HAG      -0.738500
      8 CB1         -2.4310     0.5130    -3.6040 c3         1 HAG      -0.093400
      9 CG1         -1.3290    -0.2790    -2.9100 c3         1 HAG      -0.157400
     10 CD1         -0.1080     0.5600    -2.6200 c          1 HAG       0.605100
     11 OE1          0.3470     1.3690    -3.4150 o          1 HAG      -0.600100
     12 N2           0.4760     0.3420    -1.4220 ns         1 HAG      -0.523900
     13 CA2          1.6330     1.0880    -0.9970 c3         1 HAG       0.044700
     14 CB2          1.8910     0.8570     0.4880 c3         1 HAG       0.055600
     15 SG2          0.4440     1.3630     1.4640 ss         1 HAG      -0.416000
     16 CA3          4.0950    -1.0530    -2.9580 c3         1 HAG      -0.057000
     17 O31          4.7150    -3.0560    -4.0380 o          1 HAG      -0.731000
     18 O32          2.6460    -2.9280    -3.2040 o          1 HAG      -0.731000
     19 C41          1.0390     0.9250     3.1160 c5         1 HAG       0.033300
     20 C42          2.0920     1.8610     3.6990 c5         1 HAG      -0.095400
     21 O42          2.4570     0.5680     5.6490 oh         1 HAG      -0.676000
     22 C43          1.8260     1.7250     5.1870 c5         1 HAG       0.375300
     23 O43          0.4280     1.6450     5.2850 os         1 HAG      -0.492000
     24 C44         -0.1170     1.0040     4.1350 c5         1 HAG       0.185300
     25 C45         -0.7000    -0.3600     4.4630 c3         1 HAG      -0.091400
     26 C46         -1.8500    -0.3170     5.4600 c3         1 HAG      -0.069400
     27 C47         -2.4030    -1.7010     5.7770 c3         1 HAG      -0.077400
     28 C48         -3.5480    -1.6760     6.7820 c3         1 HAG      -0.074400
     29 C49         -4.0750    -3.0640     7.1160 c3         1 HAG      -0.088100
     30 HN11        -3.3280    -1.0900    -5.6990 hn         1 HAG       0.379500
     31 HN12        -2.7030    -1.9880    -4.4970 hn         1 HAG       0.379500
     32 HCA1        -4.0360    -0.7130    -2.9030 h1         1 HAG       0.035700
     33 HB11        -2.7000     1.3690    -2.9800 hc         1 HAG       0.056200
     34 HB12        -2.0590     0.9140    -4.5510 hc         1 HAG       0.056200
     35 HG12        -0.9970    -1.1110    -3.5400 hc         1 HAG       0.052700
     36 HG11        -1.7140    -0.7280    -1.9900 hc         1 HAG       0.052700
     37 HN21         0.0390    -0.2920    -0.7710 hn         1 HAG       0.319500
     38 HCA2         1.4640     2.1550    -1.1640 h1         1 HAG       0.088700
     39 HB21         2.7610     1.4420     0.7890 h1         1 HAG       0.071700
     40 HB22         2.1060    -0.1970     0.6830 h1         1 HAG       0.071700
     41 HN31         2.1680    -1.1220    -2.1990 hn         1 HAG       0.348500
     42 HA31         4.3660    -0.4350    -3.8200 h1         1 HAG       0.032700
     43 HA32         4.9750    -1.0800    -2.3080 h1         1 HAG       0.032700
     44 HC41         1.4230    -0.0970     3.0680 h1         1 HAG       0.084700
     45 H421         1.9030     2.8900     3.3890 hc         1 HAG       0.074700
     46 H422         3.1120     1.6000     3.4190 hc         1 HAG       0.074700
     47 HO42         2.2930     0.4800     6.5940 ho         1 HAG       0.444000
     48 HC43         2.1350     2.6010     5.7670 h2         1 HAG       0.054700
     49 HC44        -0.9210     1.6540     3.7610 h1         1 HAG       0.076700
     50 H451         0.0990    -1.0060     4.8400 hc         1 HAG       0.054200
     51 H452        -1.0460    -0.8070     3.5250 hc         1 HAG       0.054200
     52 H461        -2.6530     0.3150     5.0660 hc         1 HAG       0.040700
     53 H462        -1.5120     0.1560     6.3870 hc         1 HAG       0.040700
     54 H471        -1.5950    -2.3320     6.1640 hc         1 HAG       0.038700
     55 H472        -2.7440    -2.1790     4.8520 hc         1 HAG       0.038700
     56 H481        -4.3620    -1.0600     6.3880 hc         1 HAG       0.034200
     57 H482        -3.2120    -1.1820     7.7000 hc         1 HAG       0.034200
     58 H491        -4.8890    -3.0210     7.8410 hc         1 HAG       0.028033
     59 H492        -4.4550    -3.5680     6.2250 hc         1 HAG       0.028033
     60 H493        -3.2890    -3.6930     7.5380 hc         1 HAG       0.028033
     61 O2           3.8370     1.5320    -1.8100 o          1 HAG      -0.666100
     62 N3           2.9620    -0.5000    -2.2640 ns         1 HAG      -0.446900
@<TRIPOS>BOND
     1     1     5 1   
     2     1     6 1   
     3     1     7 1   
     4     2    13 1   
     5     2    61 2   
     6     2    62 1   
     7     3    16 1   
     8     3    17 1   
     9     3    18 1   
    10     4     5 1   
    11     4    30 1   
    12     4    31 1   
    13     5     8 1   
    14     5    32 1   
    15     8     9 1   
    16     8    33 1   
    17     8    34 1   
    18     9    10 1   
    19     9    35 1   
    20     9    36 1   
    21    10    11 2   
    22    10    12 1   
    23    12    13 1   
    24    12    37 1   
    25    13    14 1   
    26    13    38 1   
    27    14    15 1   
    28    14    39 1   
    29    14    40 1   
    30    15    19 1   
    31    16    42 1   
    32    16    43 1   
    33    16    62 1   
    34    19    20 1   
    35    19    24 1   
    36    19    44 1   
    37    20    22 1   
    38    20    45 1   
    39    20    46 1   
    40    21    22 1   
    41    21    47 1   
    42    22    23 1   
    43    22    48 1   
    44    23    24 1   
    45    24    25 1   
    46    24    49 1   
    47    25    26 1   
    48    25    50 1   
    49    25    51 1   
    50    26    27 1   
    51    26    52 1   
    52    26    53 1   
    53    27    28 1   
    54    27    54 1   
    55    27    55 1   
    56    28    29 1   
    57    28    56 1   
    58    28    57 1   
    59    29    58 1   
    60    29    59 1   
    61    29    60 1   
    62    41    62 1   
@<TRIPOS>SUBSTRUCTURE
     1 HAG         1 TEMP              0 ****  ****    0 ROOT
