@<TRIPOS>MOLECULE
HAH
   35    36     1     0     0
SMALL
abcg2


@<TRIPOS>ATOM
      1 C1          13.6670     5.1270     3.7050 c6         1 HAH       0.210700
      2 N1          12.8090     3.9350     3.6610 n7         1 HAH      -0.865400
      3 C2          14.9330     5.0330     2.8510 c6         1 HAH       0.104300
      4 O2          15.7620     4.0150     3.4060 oh         1 HAH      -0.725000
      5 C3          15.6700     6.3680     2.8020 c6         1 HAH       0.102300
      6 O3          16.9410     6.2160     2.1680 oh         1 HAH      -0.652000
      7 C4          14.8030     7.4330     2.1360 c6         1 HAH       0.176500
      8 O4          15.3770     8.7390     2.2500 oh         1 HAH      -0.706000
      9 C5          13.4030     7.3990     2.6870 c2         1 HAH      -0.272200
     10 C6          12.9020     6.3810     3.3810 c2         1 HAH      -0.178200
     11 C10         12.2360     3.5960     2.3530 c3         1 HAH       0.213100
     12 C11         10.9400     4.3220     2.0630 ca         1 HAH      -0.107300
     13 C12         10.6750     4.8460     0.7940 ca         1 HAH       0.131100
     14 O12         11.6250     4.6900    -0.1810 oh         1 HAH      -0.548100
     15 C13          9.4800     5.5170     0.5340 ca         1 HAH      -0.200000
     16 C14          8.5310     5.6650     1.5360 ca         1 HAH      -0.072000
     17 C15          8.7710     5.1380     2.8020 ca         1 HAH      -0.150000
     18 C16          9.9670     4.4750     3.0490 ca         1 HAH      -0.061000
     19 H1          14.0020     5.2000     4.7480 h1         1 HAH       0.079700
     20 HN1         13.3480     3.1480     3.9980 hn         1 HAH       0.433000
     21 H2          14.6640     4.7630     1.8210 h1         1 HAH       0.040700
     22 HO2         16.6270     4.0970     2.9790 ho         1 HAH       0.520000
     23 H3          15.8970     6.6850     3.8250 h1         1 HAH       0.086700
     24 HO3         16.7980     6.0790     1.2220 ho         1 HAH       0.442000
     25 H4          14.7820     7.2410     1.0570 h1         1 HAH       0.078700
     26 HO4         15.3700     8.9900     3.1840 ho         1 HAH       0.503000
     27 H5          12.8050     8.2840     2.5000 ha         1 HAH       0.191000
     28 H6          11.8910     6.4340     3.7640 ha         1 HAH       0.198000
     29 H10         12.9310     3.7750     1.5310 h1         1 HAH       0.047700
     30 H10A        12.0450     2.5190     2.3600 h1         1 HAH       0.047700
     31 HO12        11.3380     5.1380    -0.9880 ho         1 HAH       0.462000
     32 H13          9.3050     5.9230    -0.4570 ha         1 HAH       0.111000
     33 H14          7.6080     6.1890     1.3250 ha         1 HAH       0.113000
     34 H15          8.0360     5.2450     3.5890 ha         1 HAH       0.116000
     35 H16         10.1740     4.0820     4.0360 ha         1 HAH       0.129000
@<TRIPOS>BOND
     1     1     2 1   
     2     1     3 1   
     3     1    10 1   
     4     1    19 1   
     5     2    11 1   
     6     2    20 1   
     7     3     4 1   
     8     3     5 1   
     9     3    21 1   
    10     4    22 1   
    11     5     6 1   
    12     5     7 1   
    13     5    23 1   
    14     6    24 1   
    15     7     8 1   
    16     7     9 1   
    17     7    25 1   
    18     8    26 1   
    19     9    10 2   
    20     9    27 1   
    21    10    28 1   
    22    11    12 1   
    23    11    29 1   
    24    11    30 1   
    25    12    13 ar  
    26    12    18 ar  
    27    13    14 1   
    28    13    15 ar  
    29    14    31 1   
    30    15    16 ar  
    31    15    32 1   
    32    16    17 ar  
    33    16    33 1   
    34    17    18 ar  
    35    17    34 1   
    36    18    35 1   
@<TRIPOS>SUBSTRUCTURE
     1 HAH         1 TEMP              0 ****  ****    0 ROOT
