@<TRIPOS>MOLECULE
HAH
   35    36     1     0     0
SMALL
No Charge or Current Charge


@<TRIPOS>ATOM
      1 C1          13.6790     5.0370     3.7820 c6         1 HAH       0.210700
      2 N1          12.8530     3.8020     3.8780 n7         1 HAH      -0.865400
      3 C2          14.8390     4.9260     2.7310 c6         1 HAH       0.104300
      4 O2          15.8340     3.9630     3.1290 oh         1 HAH      -0.725000
      5 C3          15.5070     6.3140     2.5460 c6         1 HAH       0.102300
      6 O3          16.6590     6.2150     1.6830 oh         1 HAH      -0.652000
      7 C4          14.4630     7.3180     1.9630 c6         1 HAH       0.176500
      8 O4          14.9900     8.6470     1.9570 oh         1 HAH      -0.706000
      9 C5          13.1710     7.3000     2.7590 c2         1 HAH      -0.272200
     10 C6          12.8140     6.2740     3.5570 c2         1 HAH      -0.178200
     11 C10         12.1380     3.3090     2.6700 c3         1 HAH       0.213100
     12 C11         11.0170     4.2420     2.2080 ca         1 HAH      -0.107300
     13 C12         11.0460     4.8840     0.9470 ca         1 HAH       0.131100
     14 O12         12.0820     4.6900     0.0790 oh         1 HAH      -0.548100
     15 C13          9.9950     5.7350     0.5630 ca         1 HAH      -0.200000
     16 C14          8.9070     5.9510     1.4240 ca         1 HAH      -0.072000
     17 C15          8.8670     5.3100     2.6720 ca         1 HAH      -0.150000
     18 C16          9.9140     4.4580     3.0610 ca         1 HAH      -0.061000
     19 H1          14.1600     5.1810     4.7630 h1         1 HAH       0.079700
     20 HN1         13.5060     3.0550     4.1480 hn         1 HAH       0.433000
     21 H2          14.4130     4.6380     1.7580 h1         1 HAH       0.040700
     22 HO2         16.6490     4.2580     2.6540 ho         1 HAH       0.520000
     23 H3          15.8130     6.6790     3.5390 h1         1 HAH       0.086700
     24 HO3         16.8340     7.1310     1.3690 ho         1 HAH       0.442000
     25 H4          14.2290     7.0030     0.9340 h1         1 HAH       0.078700
     26 HO4         14.9260     8.9760     2.8830 ho         1 HAH       0.503000
     27 H5          12.5060     8.1560     2.6270 ha         1 HAH       0.191000
     28 H6          11.8690     6.2950     4.1010 ha         1 HAH       0.198000
     29 H10         12.8450     3.1190     1.8520 h1         1 HAH       0.047700
     30 H10A        11.6790     2.3370     2.8980 h1         1 HAH       0.047700
     31 HO12        11.8980     5.2010    -0.7370 ho         1 HAH       0.462000
     32 H13         10.0150     6.2320    -0.4030 ha         1 HAH       0.111000
     33 H14          8.0950     6.6100     1.1240 ha         1 HAH       0.113000
     34 H15          8.0240     5.4730     3.3400 ha         1 HAH       0.116000
     35 H16          9.8770     3.9680     4.0320 ha         1 HAH       0.129000
@<TRIPOS>BOND
     1     1     2 1   
     2     1     3 1   
     3     1    10 1   
     4     1    19 1   
     5     2    11 1   
     6     2    20 1   
     7     3     4 1   
     8     3     5 1   
     9     3    21 1   
    10     4    22 1   
    11     5     6 1   
    12     5     7 1   
    13     5    23 1   
    14     6    24 1   
    15     7     8 1   
    16     7     9 1   
    17     7    25 1   
    18     8    26 1   
    19     9    10 2   
    20     9    27 1   
    21    10    28 1   
    22    11    12 1   
    23    11    29 1   
    24    11    30 1   
    25    12    13 ar  
    26    12    18 ar  
    27    13    14 1   
    28    13    15 ar  
    29    14    31 1   
    30    15    16 ar  
    31    15    32 1   
    32    16    17 ar  
    33    16    33 1   
    34    17    18 ar  
    35    17    34 1   
    36    18    35 1   
@<TRIPOS>SUBSTRUCTURE
     1 HAH         1 TEMP              0 ****  ****    0 ROOT
