@<TRIPOS>MOLECULE
HAI
   21    21     1     0     0
SMALL
No Charge or Current Charge


@<TRIPOS>ATOM
      1 C1          -0.9580    -0.0210     0.3770 c6         1 HAI       0.111300
      2 C2          -0.2690    -1.2920    -0.1670 c6         1 HAI      -0.100400
      3 C3           1.2350    -1.3040     0.2060 c6         1 HAI      -0.071400
      4 C4           1.9460    -0.0230    -0.3030 c6         1 HAI      -0.087400
      5 C5           1.2390     1.2560     0.2140 c6         1 HAI      -0.071400
      6 C6          -0.2650     1.2520    -0.1590 c6         1 HAI      -0.100400
      7 N           -2.4210    -0.0170    -0.0720 nz         1 HAI      -0.977000
      8 H1          -0.9590    -0.0240     1.4750 hx         1 HAI       0.105700
      9 H21         -0.7580    -2.1870     0.2400 hc         1 HAI       0.062700
     10 H22         -0.3770    -1.3430    -1.2600 hc         1 HAI       0.062700
     11 H31          1.3460    -1.3820     1.2970 hc         1 HAI       0.069700
     12 H32          1.7190    -2.1940    -0.2200 hc         1 HAI       0.069700
     13 H41          2.9970    -0.0260     0.0200 hc         1 HAI       0.067700
     14 H42          1.9600    -0.0190    -1.4020 hc         1 HAI       0.067700
     15 H51          1.3510     1.3260     1.3060 hc         1 HAI       0.069700
     16 H52          1.7260     2.1480    -0.2050 hc         1 HAI       0.069700
     17 H61         -0.3730     1.3110    -1.2510 hc         1 HAI       0.062700
     18 H62         -0.7510     2.1460     0.2550 hc         1 HAI       0.062700
     19 HN1         -2.9450    -0.8390     0.2640 hn         1 HAI       0.508333
     20 HN2         -2.5280    -0.0130    -1.0980 hn         1 HAI       0.508333
     21 HN3         -2.9430     0.8050     0.2690 hn         1 HAI       0.508333
@<TRIPOS>BOND
     1     1     2 1   
     2     1     6 1   
     3     1     7 1   
     4     1     8 1   
     5     2     3 1   
     6     2     9 1   
     7     2    10 1   
     8     3     4 1   
     9     3    11 1   
    10     3    12 1   
    11     4     5 1   
    12     4    13 1   
    13     4    14 1   
    14     5     6 1   
    15     5    15 1   
    16     5    16 1   
    17     6    17 1   
    18     6    18 1   
    19     7    19 1   
    20     7    20 1   
    21     7    21 1   
@<TRIPOS>SUBSTRUCTURE
     1 HAI         1 TEMP              0 ****  ****    0 ROOT
