@<TRIPOS>MOLECULE
HAI
   21    21     1     0     0
SMALL
abcg2


@<TRIPOS>ATOM
      1 C1          -0.9360    -0.0210     0.3400 c6         1 HAI       0.111300
      2 C2          -0.2650    -1.2830    -0.1760 c6         1 HAI      -0.100400
      3 C3           1.2130    -1.2820     0.2050 c6         1 HAI      -0.071400
      4 C4           1.9130    -0.0230    -0.2940 c6         1 HAI      -0.087400
      5 C5           1.2170     1.2340     0.2150 c6         1 HAI      -0.071400
      6 C6          -0.2610     1.2430    -0.1670 c6         1 HAI      -0.100400
      7 N           -2.3750    -0.0170    -0.0640 nz         1 HAI      -0.977000
      8 H1          -0.9430    -0.0240     1.4310 hx         1 HAI       0.105700
      9 H21         -0.7620    -2.1660     0.2320 hc         1 HAI       0.062700
     10 H22         -0.3640    -1.3310    -1.2660 hc         1 HAI       0.062700
     11 H31          1.3080    -1.3500     1.2940 hc         1 HAI       0.069700
     12 H32          1.6900    -2.1740    -0.2030 hc         1 HAI       0.069700
     13 H41          2.9600    -0.0260     0.0160 hc         1 HAI       0.067700
     14 H42          1.9100    -0.0190    -1.3890 hc         1 HAI       0.067700
     15 H51          1.3120     1.2950     1.3040 hc         1 HAI       0.069700
     16 H52          1.6970     2.1280    -0.1880 hc         1 HAI       0.069700
     17 H61         -0.3600     1.2990    -1.2560 hc         1 HAI       0.062700
     18 H62         -0.7550     2.1250     0.2480 hc         1 HAI       0.062700
     19 HN1         -2.8710    -0.8350     0.2900 hn         1 HAI       0.508333
     20 HN2         -2.4870    -0.0160    -1.0780 hn         1 HAI       0.508333
     21 HN3         -2.8670     0.8040     0.2910 hn         1 HAI       0.508333
@<TRIPOS>BOND
     1     1     2 1   
     2     1     6 1   
     3     1     7 1   
     4     1     8 1   
     5     2     3 1   
     6     2     9 1   
     7     2    10 1   
     8     3     4 1   
     9     3    11 1   
    10     3    12 1   
    11     4     5 1   
    12     4    13 1   
    13     4    14 1   
    14     5     6 1   
    15     5    15 1   
    16     5    16 1   
    17     6    17 1   
    18     6    18 1   
    19     7    19 1   
    20     7    20 1   
    21     7    21 1   
@<TRIPOS>SUBSTRUCTURE
     1 HAI         1 TEMP              0 ****  ****    0 ROOT
