@<TRIPOS>MOLECULE
HAJ
   37    41     1     0     0
SMALL
bcc


@<TRIPOS>ATOM
      1 F2          -4.6810     1.7790    -0.2400 f          1 HAJ      -0.114900
      2 C1          -3.3920     2.1100    -0.1490 ca         1 HAJ       0.197900
      3 C15         -3.0290     3.4290    -0.1610 ca         1 HAJ      -0.188000
      4 C14         -1.6700     3.7540    -0.0620 ca         1 HAJ      -0.077000
      5 C13         -0.7100     2.7750     0.0440 ca         1 HAJ      -0.191300
      6 C12         -1.0810     1.4220     0.0550 ca         1 HAJ       0.444600
      7 C3          -2.4490     1.0830    -0.0430 ca         1 HAJ      -0.192300
      8 N11         -0.0970     0.4750     0.1600 nc         1 HAJ      -0.700000
      9 C10         -0.4010    -0.7730     0.1700 cd         1 HAJ       0.596800
     10 N9          -1.7060    -1.1670     0.0810 na         1 HAJ      -0.005800
     11 N8          -2.1500    -2.4400     0.0790 nc         1 HAJ      -0.647100
     12 C6          -3.4570    -2.2760    -0.0250 cd         1 HAJ       0.739200
     13 N7          -4.3340    -3.3060    -0.0110 nv         1 HAJ      -0.878800
     14 N5          -3.8760    -0.9860    -0.0950 nd         1 HAJ      -0.416300
     15 C4          -2.7570    -0.3060    -0.0280 cc         1 HAJ       0.061700
     16 C16          0.6240    -1.8590     0.2700 c3         1 HAJ      -0.075400
     17 C17          2.0250    -1.3340     0.3810 ca         1 HAJ      -0.074300
     18 C25          2.6380    -1.2350     1.6210 ca         1 HAJ      -0.113000
     19 C24          3.9380    -0.7340     1.7680 ca         1 HAJ      -0.114000
     20 C23          4.5820    -0.3420     0.6220 ca         1 HAJ       0.057100
     21 C19          3.9770    -0.4410    -0.6220 ca         1 HAJ       0.051100
     22 C18          2.7070    -0.9310    -0.7780 ca         1 HAJ      -0.094000
     23 O22          5.8390     0.1470     0.4730 os         1 HAJ      -0.320900
     24 C21          5.9300     0.5790    -0.8770 c5         1 HAJ       0.326200
     25 O20          4.8430    -0.0150    -1.5750 os         1 HAJ      -0.321900
     26 H15         -3.7810     4.2010    -0.2440 ha         1 HAJ       0.157000
     27 H14         -1.3790     4.7950    -0.0710 ha         1 HAJ       0.142000
     28 H13          0.3400     3.0260     0.1210 ha         1 HAJ       0.159000
     29 H161         0.3790    -2.4880     1.1300 hc         1 HAJ       0.086200
     30 H162         0.5170    -2.5090    -0.6040 hc         1 HAJ       0.086200
     31 H7A         -3.9640    -4.2190    -0.2190 hn         1 HAJ       0.424300
     32 H7B         -5.2350    -3.1250    -0.4210 hn         1 HAJ       0.424300
     33 H25          2.1000    -1.5500     2.5060 ha         1 HAJ       0.137000
     34 H18          2.2480    -1.0100    -1.7550 ha         1 HAJ       0.151000
     35 H24          4.4070    -0.6650     2.7400 ha         1 HAJ       0.153000
     36 H211         5.8510     1.6700    -0.9250 h2         1 HAJ       0.064200
     37 H212         6.8720     0.2440    -1.3100 h2         1 HAJ       0.064200
@<TRIPOS>BOND
     1     1     2 1   
     2     2     3 ar  
     3     2     7 ar  
     4     3     4 ar  
     5     3    26 1   
     6     4     5 ar  
     7     4    27 1   
     8     5     6 ar  
     9     5    28 1   
    10     6     7 ar  
    11     6     8 1   
    12     7    15 1   
    13     8     9 2   
    14     9    10 1   
    15     9    16 1   
    16    10    11 1   
    17    10    15 1   
    18    11    12 2   
    19    12    13 1   
    20    12    14 1   
    21    13    31 1   
    22    13    32 1   
    23    14    15 2   
    24    16    17 1   
    25    16    29 1   
    26    16    30 1   
    27    17    18 ar  
    28    17    22 ar  
    29    18    19 ar  
    30    18    33 1   
    31    19    20 ar  
    32    19    35 1   
    33    20    21 ar  
    34    20    23 1   
    35    21    22 ar  
    36    21    25 1   
    37    22    34 1   
    38    23    24 1   
    39    24    25 1   
    40    24    36 1   
    41    24    37 1   
@<TRIPOS>SUBSTRUCTURE
     1 HAJ         1 TEMP              0 ****  ****    0 ROOT
