@<TRIPOS>MOLECULE
HAJ
   37    41     1     0     0
SMALL
No Charge or Current Charge


@<TRIPOS>ATOM
      1 F2          -4.3480     1.8450     1.3690 f          1 HAJ      -0.150000
      2 C1          -3.4240     2.2140     0.4520 ca         1 HAJ       0.233000
      3 C15         -3.4580     3.5270    -0.0360 ca         1 HAJ      -0.170000
      4 C14         -2.5160     3.9430    -0.9880 ca         1 HAJ      -0.059000
      5 C13         -1.5450     3.0370    -1.4430 ca         1 HAJ      -0.108000
      6 C12         -1.4930     1.7140    -0.9650 ca         1 HAJ       0.314000
      7 C3          -2.4450     1.3050    -0.0090 ca         1 HAJ      -0.127000
      8 N11         -0.4750     0.8870    -1.4890 nc         1 HAJ      -0.700000
      9 C10         -0.4350    -0.3850    -1.0200 cd         1 HAJ       0.596800
     10 N9          -1.3620    -0.8690    -0.0600 na         1 HAJ       0.044900
     11 N8          -1.4600    -2.1210     0.5020 nc         1 HAJ      -0.647100
     12 C6          -2.4820    -1.9540     1.2980 cd         1 HAJ       0.739200
     13 N7          -2.9220    -2.9650     2.0360 nv         1 HAJ      -0.989200
     14 N5          -3.0740    -0.7260     1.3070 nd         1 HAJ      -0.416300
     15 C4          -2.3410    -0.0610     0.4400 cc         1 HAJ       0.011000
     16 C16          0.6570    -1.2810    -1.5520 c3         1 HAJ      -0.075400
     17 C17          1.9240    -1.2720    -0.7020 ca         1 HAJ      -0.074300
     18 C25          2.1330    -2.2730     0.2810 ca         1 HAJ      -0.095000
     19 C24          3.2980    -2.2640     1.0780 ca         1 HAJ      -0.096000
     20 C23          4.2330    -1.2430     0.8650 ca         1 HAJ       0.057100
     21 C19          4.0350    -0.2750    -0.0780 ca         1 HAJ       0.051100
     22 C18          2.8890    -0.2540    -0.8820 ca         1 HAJ      -0.076000
     23 O22          5.3960    -1.0770     1.5440 os         1 HAJ      -0.344100
     24 C21          5.9920     0.0960     0.8830 c5         1 HAJ       0.372600
     25 O20          5.0490     0.6260    -0.1160 os         1 HAJ      -0.345100
     26 H15         -4.2150     4.2200     0.3240 ha         1 HAJ       0.139000
     27 H14         -2.5370     4.9610    -1.3710 ha         1 HAJ       0.124000
     28 H13         -0.8160     3.3630    -2.1810 ha         1 HAJ       0.141000
     29 H161         0.2740    -2.3030    -1.6440 hc         1 HAJ       0.086200
     30 H162         0.9010    -0.9810    -2.5770 hc         1 HAJ       0.086200
     31 H7A         -2.6180    -3.8780     1.7270 hn         1 HAJ       0.479500
     32 H7B         -3.8780    -2.8930     2.3600 hn         1 HAJ       0.479500
     33 H25          1.3910    -3.0550     0.4300 ha         1 HAJ       0.119000
     34 H18          2.7500     0.5310    -1.6220 ha         1 HAJ       0.133000
     35 H24          3.4670    -3.0250     1.8360 ha         1 HAJ       0.135000
     36 H211         6.2090     0.8680     1.6310 h2         1 HAJ       0.064200
     37 H212         6.9160    -0.2080     0.3780 h2         1 HAJ       0.064200
@<TRIPOS>BOND
     1     1     2 1   
     2     2     3 ar  
     3     2     7 ar  
     4     3     4 ar  
     5     3    26 1   
     6     4     5 ar  
     7     4    27 1   
     8     5     6 ar  
     9     5    28 1   
    10     6     7 ar  
    11     6     8 1   
    12     7    15 1   
    13     8     9 2   
    14     9    10 1   
    15     9    16 1   
    16    10    11 1   
    17    10    15 1   
    18    11    12 2   
    19    12    13 1   
    20    12    14 1   
    21    13    31 1   
    22    13    32 1   
    23    14    15 2   
    24    16    17 1   
    25    16    29 1   
    26    16    30 1   
    27    17    18 ar  
    28    17    22 ar  
    29    18    19 ar  
    30    18    33 1   
    31    19    20 ar  
    32    19    35 1   
    33    20    21 ar  
    34    20    23 1   
    35    21    22 ar  
    36    21    25 1   
    37    22    34 1   
    38    23    24 1   
    39    24    25 1   
    40    24    36 1   
    41    24    37 1   
@<TRIPOS>SUBSTRUCTURE
     1 HAJ         1 TEMP              0 ****  ****    0 ROOT
