@<TRIPOS>MOLECULE
HAK
   56    61     1     0     0
SMALL
abcg2


@<TRIPOS>ATOM
      1 CAH         -3.5500     0.3280    -0.4230 ca         1 HAK      -0.110000
      2 CAI         -4.6670    -0.2980    -0.9740 ca         1 HAK      -0.057200
      3 NAT         -5.9020     0.2120    -1.2550 na         1 HAK      -0.088700
      4 CAU         -6.3050     1.5810    -1.0460 c3         1 HAK       0.065900
      5 CAS         -6.6730    -0.7830    -1.7890 cc         1 HAK      -0.158100
      6 CAR         -5.9630    -1.9480    -1.8590 cd         1 HAK      -0.240200
      7 CAJ         -4.6660    -1.6630    -1.3380 ca         1 HAK      -0.086800
      8 CAK         -3.4990    -2.4100    -1.1340 ca         1 HAK      -0.065000
      9 CAL         -2.3970    -1.8000    -0.5760 ca         1 HAK      -0.098000
     10 CAG         -2.4110    -0.4340    -0.2180 cp         1 HAK      -0.027000
     11 CAC         -1.2000     0.1990     0.3410 cp         1 HAK       0.049000
     12 CAB         -0.6470     1.2950    -0.2680 ca         1 HAK      -0.139000
     13 CAD         -0.5690    -0.3290     1.5050 ca         1 HAK       0.203000
     14 NAP         -1.1010    -1.3910     2.1390 nb         1 HAK      -0.604000
     15 CAO         -0.4910    -1.8240     3.2090 ca         1 HAK       0.283900
     16 CAN          0.6790    -1.2050     3.6990 ca         1 HAK       0.313900
     17 NAM          1.2140    -0.1690     3.1160 nb         1 HAK      -0.649000
     18 CAE          0.6040     0.2970     2.0000 ca         1 HAK       0.252000
     19 CAF          1.1460     1.4150     1.3450 ca         1 HAK      -0.163000
     20 CAA          0.5410     1.9030     0.2080 ca         1 HAK       0.323000
     21 NAQ          1.0830     2.9600    -0.4970 nu         1 HAK      -0.994000
     22 CAV          2.4570     3.1430    -0.6600 ca         1 HAK       0.282000
     23 CBA          2.9980     4.4250    -0.5890 ca         1 HAK       0.316900
     24 NAZ          4.2850     4.6910    -0.7420 nb         1 HAK      -0.633000
     25 CAY          5.1170     3.6770    -0.9380 ca         1 HAK       0.318900
     26 CAX          4.6920     2.3600    -1.0220 ca         1 HAK      -0.122000
     27 CAW          3.3380     2.0840    -0.9080 ca         1 HAK      -0.156600
     28 CBB          2.8010     0.7110    -1.1650 c          1 HAK       0.621700
     29 OBD          2.0370     0.5070    -2.0840 o          1 HAK      -0.554100
     30 NBC          3.2280    -0.2390    -0.2950 ns         1 HAK      -0.121000
     31 CBE          2.6500    -1.4880    -0.0910 ca         1 HAK      -0.131000
     32 CBF          1.7620    -2.1310    -0.9530 ca         1 HAK       0.075400
     33 NBG          1.2130    -3.2950    -0.6280 nb         1 HAK      -0.155500
     34 CBH          1.5470    -3.8370     0.5290 ca         1 HAK       0.090900
     35 NBI          2.4000    -3.3240     1.4050 nb         1 HAK      -0.155500
     36 CBJ          2.9400    -2.1600     1.0960 ca         1 HAK       0.075400
     37 H1          -3.5690     1.3750    -0.1450 ha         1 HAK       0.111000
     38 H2          -5.7450     2.2600    -1.6890 h1         1 HAK       0.047367
     39 H3          -7.3620     1.6810    -1.2770 h1         1 HAK       0.047367
     40 H4          -6.1510     1.8750    -0.0090 h1         1 HAK       0.047367
     41 H5          -7.6910    -0.5810    -2.0810 h4         1 HAK       0.209000
     42 H6          -6.3260    -2.8920    -2.2320 ha         1 HAK       0.206000
     43 H7          -3.4580    -3.4560    -1.4110 ha         1 HAK       0.118000
     44 H8          -1.4920    -2.3750    -0.4280 ha         1 HAK       0.126000
     45 H9          -1.0990     1.6800    -1.1750 ha         1 HAK       0.128000
     46 H10         -0.9120    -2.6790     3.7250 h4         1 HAK       0.033100
     47 H11          1.1610    -1.5890     4.5910 h4         1 HAK       0.031100
     48 H12          2.0390     1.8720     1.7530 ha         1 HAK       0.136000
     49 H13          0.4830     3.4310    -1.1570 hn         1 HAK       0.505000
     50 H14          2.3360     5.2650    -0.4040 h4         1 HAK       0.031100
     51 H15          6.1690     3.9160    -1.0400 h4         1 HAK       0.029100
     52 H16          5.4090     1.5710    -1.2110 ha         1 HAK       0.132000
     53 H17          3.8500     0.0700     0.4400 hn         1 HAK       0.162000
     54 H18          1.4820    -1.7100    -1.9060 h4         1 HAK       0.042100
     55 H19          1.0880    -4.7840     0.7850 h5         1 HAK       0.053100
     56 H20          3.6290    -1.7270     1.8150 h4         1 HAK       0.042100
@<TRIPOS>BOND
     1     1     2 ar  
     2     1    10 ar  
     3     1    37 1   
     4     2     3 1   
     5     2     7 ar  
     6     3     4 1   
     7     3     5 1   
     8     4    38 1   
     9     4    39 1   
    10     4    40 1   
    11     5     6 2   
    12     5    41 1   
    13     6     7 1   
    14     6    42 1   
    15     7     8 ar  
    16     8     9 ar  
    17     8    43 1   
    18     9    10 ar  
    19     9    44 1   
    20    10    11 1   
    21    11    12 ar  
    22    11    13 ar  
    23    12    20 ar  
    24    12    45 1   
    25    13    14 ar  
    26    13    18 ar  
    27    14    15 ar  
    28    15    16 ar  
    29    15    46 1   
    30    16    17 ar  
    31    16    47 1   
    32    17    18 ar  
    33    18    19 ar  
    34    19    20 ar  
    35    19    48 1   
    36    20    21 1   
    37    21    22 1   
    38    21    49 1   
    39    22    23 ar  
    40    22    27 ar  
    41    23    24 ar  
    42    23    50 1   
    43    24    25 ar  
    44    25    26 ar  
    45    25    51 1   
    46    26    27 ar  
    47    26    52 1   
    48    27    28 1   
    49    28    29 2   
    50    28    30 1   
    51    30    31 1   
    52    30    53 1   
    53    31    32 ar  
    54    31    36 ar  
    55    32    33 ar  
    56    32    54 1   
    57    33    34 ar  
    58    34    35 ar  
    59    34    55 1   
    60    35    36 ar  
    61    36    56 1   
@<TRIPOS>SUBSTRUCTURE
     1 HAK         1 TEMP              0 ****  ****    0 ROOT
