@<TRIPOS>MOLECULE
HAK
   56    61     1     0     0
SMALL
No Charge or Current Charge


@<TRIPOS>ATOM
      1 CAH         -4.0140     0.5260    -0.6260 ca         1 HAK      -0.110000
      2 CAI         -5.2280     0.0670    -1.1590 ca         1 HAK      -0.057200
      3 NAT         -6.3570     0.7760    -1.5540 na         1 HAK      -0.088700
      4 CAU         -6.4340     2.2420    -1.4540 c3         1 HAK       0.065900
      5 CAS         -7.3510    -0.1000    -2.0360 cc         1 HAK      -0.158100
      6 CAR         -6.7790    -1.3600    -1.9170 cd         1 HAK      -0.240200
      7 CAJ         -5.4500    -1.2650    -1.3690 ca         1 HAK      -0.086800
      8 CAK         -4.4950    -2.2410    -1.0720 ca         1 HAK      -0.065000
      9 CAL         -3.2650    -1.8060    -0.5340 ca         1 HAK      -0.098000
     10 CAG         -3.0050    -0.4210    -0.2940 cp         1 HAK      -0.027000
     11 CAC         -1.6890     0.0420     0.2560 cp         1 HAK       0.049000
     12 CAB         -1.0020     1.0750    -0.4250 ca         1 HAK      -0.139000
     13 CAD         -1.1060    -0.5180     1.4340 ca         1 HAK       0.203000
     14 NAP         -1.7480    -1.5040     2.1300 nb         1 HAK      -0.604000
     15 CAO         -1.1300    -1.9780     3.2430 ca         1 HAK       0.283900
     16 CAN          0.1190    -1.4800     3.6770 ca         1 HAK       0.313900
     17 NAM          0.7720    -0.4940     3.0080 nb         1 HAK      -0.649000
     18 CAE          0.1620    -0.0130     1.8910 ca         1 HAK       0.252000
     19 CAF          0.8020     1.0100     1.1790 ca         1 HAK      -0.163000
     20 CAA          0.2390     1.5420     0.0160 ca         1 HAK       0.323000
     21 NAQ          0.9000     2.5350    -0.7100 nu         1 HAK      -0.994000
     22 CAV          2.2610     2.9150    -0.7970 ca         1 HAK       0.282000
     23 CBA          2.6130     4.2960    -0.8450 ca         1 HAK       0.316900
     24 NAZ          3.8870     4.7670    -0.8560 nb         1 HAK      -0.633000
     25 CAY          4.8820     3.8560    -0.8200 ca         1 HAK       0.318900
     26 CAX          4.6480     2.4710    -0.7910 ca         1 HAK      -0.122000
     27 CAW          3.3200     1.9700    -0.8000 ca         1 HAK      -0.156600
     28 CBB          3.0840     0.4810    -0.8510 c          1 HAK       0.621700
     29 OBD          2.2620    -0.0320    -1.6030 o          1 HAK      -0.554100
     30 NBC          3.9350    -0.2620    -0.0420 ns         1 HAK      -0.121000
     31 CBE          3.9680    -1.6540     0.2550 ca         1 HAK      -0.131000
     32 CBF          2.9090    -2.5430    -0.0380 ca         1 HAK       0.075400
     33 NBG          2.9760    -3.8520     0.2830 nb         1 HAK      -0.155500
     34 CBH          4.1020    -4.2670     0.9010 ca         1 HAK       0.090900
     35 NBI          5.1640    -3.5030     1.2360 nb         1 HAK      -0.155500
     36 CBJ          5.0900    -2.1960     0.9140 ca         1 HAK       0.075400
     37 H1          -3.8480     1.5880    -0.4610 ha         1 HAK       0.111000
     38 H2          -5.6390     2.6940    -2.0600 h1         1 HAK       0.047367
     39 H3          -7.4080     2.5890    -1.8180 h1         1 HAK       0.047367
     40 H4          -6.3110     2.5460    -0.4070 h1         1 HAK       0.047367
     41 H5          -8.3200     0.2290    -2.4000 h4         1 HAK       0.209000
     42 H6          -7.2720    -2.2880    -2.2010 ha         1 HAK       0.206000
     43 H7          -4.6910    -3.2960    -1.2520 ha         1 HAK       0.118000
     44 H8          -2.5000    -2.5440    -0.3070 ha         1 HAK       0.126000
     45 H9          -1.4330     1.4920    -1.3300 ha         1 HAK       0.128000
     46 H10         -1.6410    -2.7660     3.7940 h4         1 HAK       0.033100
     47 H11          0.5990    -1.8730     4.5720 h4         1 HAK       0.031100
     48 H12          1.7490     1.3920     1.5430 ha         1 HAK       0.136000
     49 H13          0.2660     3.1400    -1.2410 hn         1 HAK       0.505000
     50 H14          1.8330     5.0560    -0.8490 h4         1 HAK       0.031100
     51 H15          5.8990     4.2470    -0.8290 h4         1 HAK       0.029100
     52 H16          5.5040     1.8000    -0.8000 ha         1 HAK       0.132000
     53 H17          4.6110     0.2900     0.4710 hn         1 HAK       0.162000
     54 H18          1.9870    -2.2200    -0.5160 h4         1 HAK       0.042100
     55 H19          4.1580    -5.3230     1.1600 h5         1 HAK       0.053100
     56 H20          5.9440    -1.5770     1.1870 h4         1 HAK       0.042100
@<TRIPOS>BOND
     1     1     2 ar  
     2     1    10 ar  
     3     1    37 1   
     4     2     3 1   
     5     2     7 ar  
     6     3     4 1   
     7     3     5 1   
     8     4    38 1   
     9     4    39 1   
    10     4    40 1   
    11     5     6 2   
    12     5    41 1   
    13     6     7 1   
    14     6    42 1   
    15     7     8 ar  
    16     8     9 ar  
    17     8    43 1   
    18     9    10 ar  
    19     9    44 1   
    20    10    11 1   
    21    11    12 ar  
    22    11    13 ar  
    23    12    20 ar  
    24    12    45 1   
    25    13    14 ar  
    26    13    18 ar  
    27    14    15 ar  
    28    15    16 ar  
    29    15    46 1   
    30    16    17 ar  
    31    16    47 1   
    32    17    18 ar  
    33    18    19 ar  
    34    19    20 ar  
    35    19    48 1   
    36    20    21 1   
    37    21    22 1   
    38    21    49 1   
    39    22    23 ar  
    40    22    27 ar  
    41    23    24 ar  
    42    23    50 1   
    43    24    25 ar  
    44    25    26 ar  
    45    25    51 1   
    46    26    27 ar  
    47    26    52 1   
    48    27    28 1   
    49    28    29 2   
    50    28    30 1   
    51    30    31 1   
    52    30    53 1   
    53    31    32 ar  
    54    31    36 ar  
    55    32    33 ar  
    56    32    54 1   
    57    33    34 ar  
    58    34    35 ar  
    59    34    55 1   
    60    35    36 ar  
    61    36    56 1   
@<TRIPOS>SUBSTRUCTURE
     1 HAK         1 TEMP              0 ****  ****    0 ROOT
