@<TRIPOS>MOLECULE
HAN
   37    38     1     0     0
SMALL
abcg2


@<TRIPOS>ATOM
      1 N1           1.1580     0.4950     0.5990 na         1 HAN      -0.198600
      2 C2           2.3720     0.0570     1.0440 cc         1 HAN       0.628700
      3 N3           2.3540    -0.3740     2.2800 nd         1 HAN      -0.658100
      4 C4           0.4290    -0.5350     3.8900 ca         1 HAN      -0.073000
      5 C5          -0.9370    -0.3150     4.0390 ca         1 HAN      -0.099300
      6 C6          -1.6980     0.2130     2.9740 ca         1 HAN      -0.081300
      7 C7          -1.0870     0.5220     1.7620 ca         1 HAN      -0.095000
      8 C9           1.0450    -0.2320     2.6810 ca         1 HAN       0.098400
      9 C8           0.2730     0.2960     1.6390 ca         1 HAN      -0.077200
     10 C10         -1.6060    -0.6490     5.3430 c3         1 HAN      -0.036800
     11 C11         -3.1730     0.4450     3.1430 c3         1 HAN      -0.039800
     12 N12          3.4860     0.1450     0.2680 nv         1 HAN      -1.000200
     13 C13          0.8240     0.9780    -0.7230 c3         1 HAN       0.069600
     14 C14          0.3420    -0.1280    -1.6530 c3         1 HAN      -0.106400
     15 C15         -0.0340     0.4050    -3.0300 c3         1 HAN      -0.053400
     16 C16         -0.5470    -0.6900    -3.9510 c3         1 HAN      -0.206400
     17 C17         -0.9240    -0.2510    -5.3770 c          1 HAN       0.718000
     18 O18         -0.7230     0.9380    -5.6940 o          1 HAN      -0.739500
     19 O19         -1.4030    -1.1410    -6.1120 o          1 HAN      -0.739500
     20 H4           1.0060    -0.9450     4.7110 ha         1 HAN       0.116000
     21 H7          -1.6690     0.9250     0.9420 ha         1 HAN       0.122000
     22 H101        -2.0540     0.2310     5.8090 hc         1 HAN       0.032367
     23 H102        -2.4100    -1.3760     5.2100 hc         1 HAN       0.032367
     24 H103        -0.8960    -1.0720     6.0530 hc         1 HAN       0.032367
     25 H111        -3.7000    -0.4690     3.4290 hc         1 HAN       0.035367
     26 H112        -3.3830     1.1810     3.9230 hc         1 HAN       0.035367
     27 H113        -3.6240     0.8080     2.2200 hc         1 HAN       0.035367
     28 H121         4.2700    -0.3810     0.6190 hn         1 HAN       0.469000
     29 H122         3.3670     0.0310    -0.7270 hn         1 HAN       0.469000
     30 H131         0.0560     1.7460    -0.6140 h1         1 HAN       0.059200
     31 H132         1.6980     1.4840    -1.1390 h1         1 HAN       0.059200
     32 H141         1.1220    -0.8910    -1.7500 hc         1 HAN       0.038200
     33 H142        -0.5190    -0.6260    -1.1980 hc         1 HAN       0.038200
     34 H151        -0.7940     1.1840    -2.9200 hc         1 HAN       0.041200
     35 H152         0.8350     0.8920    -3.4810 hc         1 HAN       0.041200
     36 H161         0.2060    -1.4840    -4.0300 hc         1 HAN       0.017700
     37 H162        -1.4190    -1.1740    -3.4980 hc         1 HAN       0.017700
@<TRIPOS>BOND
     1     1     2 1   
     2     1     9 1   
     3     1    13 1   
     4     2     3 2   
     5     2    12 1   
     6     3     8 1   
     7     4     5 ar  
     8     4     8 ar  
     9     4    20 1   
    10     5     6 ar  
    11     5    10 1   
    12     6     7 ar  
    13     6    11 1   
    14     7     9 ar  
    15     7    21 1   
    16     8     9 ar  
    17    10    22 1   
    18    10    23 1   
    19    10    24 1   
    20    11    25 1   
    21    11    26 1   
    22    11    27 1   
    23    12    28 1   
    24    12    29 1   
    25    13    14 1   
    26    13    30 1   
    27    13    31 1   
    28    14    15 1   
    29    14    32 1   
    30    14    33 1   
    31    15    16 1   
    32    15    34 1   
    33    15    35 1   
    34    16    17 1   
    35    16    36 1   
    36    16    37 1   
    37    17    18 1   
    38    17    19 1   
@<TRIPOS>SUBSTRUCTURE
     1 HAN         1 TEMP              0 ****  ****    0 ROOT
