@<TRIPOS>MOLECULE
HAN
   37    38     1     0     0
SMALL
No Charge or Current Charge


@<TRIPOS>ATOM
      1 N1           1.1980     0.4810     0.6120 na         1 HAN      -0.198600
      2 C2           2.4520     0.1540     1.1130 cc         1 HAN       0.628700
      3 N3           2.4300    -0.2390     2.3830 nd         1 HAN      -0.658100
      4 C4           0.4600    -0.4570     3.9240 ca         1 HAN      -0.073000
      5 C5          -0.9440    -0.3110     4.0460 ca         1 HAN      -0.099300
      6 C6          -1.7120     0.1360     2.9310 ca         1 HAN      -0.081300
      7 C7          -1.0680     0.4340     1.7080 ca         1 HAN      -0.095000
      8 C9           1.0720    -0.1550     2.7010 ca         1 HAN       0.098400
      9 C8           0.3220     0.2770     1.6390 ca         1 HAN      -0.077200
     10 C10         -1.6100    -0.6410     5.3780 c3         1 HAN      -0.036800
     11 C11         -3.2250     0.3000     3.0320 c3         1 HAN      -0.039800
     12 N12          3.5850     0.2070     0.4000 nv         1 HAN      -1.000200
     13 C13          0.8070     0.9740    -0.7210 c3         1 HAN       0.069600
     14 C14          0.3230    -0.1520    -1.6580 c3         1 HAN      -0.106400
     15 C15         -0.0930     0.3640    -3.0530 c3         1 HAN      -0.053400
     16 C16         -0.5800    -0.7630    -3.9970 c3         1 HAN      -0.206400
     17 C17         -0.9760    -0.1770    -5.3650 c          1 HAN       0.718000
     18 O18         -0.1100    -0.0760    -6.2210 o          1 HAN      -0.739500
     19 O19         -2.1260     0.2060    -5.5170 o          1 HAN      -0.739500
     20 H4           1.0620    -0.7990     4.7620 ha         1 HAN       0.116000
     21 H7          -1.6360     0.7740     0.8450 ha         1 HAN       0.122000
     22 H101        -2.1290     0.2340     5.7870 hc         1 HAN       0.032367
     23 H102        -2.3440    -1.4470     5.2640 hc         1 HAN       0.032367
     24 H103        -0.8810    -0.9680     6.1280 hc         1 HAN       0.032367
     25 H111        -3.7100    -0.6520     3.2810 hc         1 HAN       0.035367
     26 H112        -3.4930     1.0290     3.8050 hc         1 HAN       0.035367
     27 H113        -3.6610     0.6500     2.0880 hc         1 HAN       0.035367
     28 H121         4.3760    -0.2810     0.8030 hn         1 HAN       0.469000
     29 H122         3.5010     0.1740    -0.6080 hn         1 HAN       0.469000
     30 H131         0.0100     1.7190    -0.6030 h1         1 HAN       0.059200
     31 H132         1.6650     1.4850    -1.1760 h1         1 HAN       0.059200
     32 H141         1.1230    -0.8950    -1.7700 hc         1 HAN       0.038200
     33 H142        -0.5280    -0.6650    -1.1940 hc         1 HAN       0.038200
     34 H151        -0.8910     1.1080    -2.9380 hc         1 HAN       0.041200
     35 H152         0.7590     0.8790    -3.5150 hc         1 HAN       0.041200
     36 H161         0.2670    -1.4510    -4.1060 hc         1 HAN       0.017700
     37 H162        -1.4530    -1.2100    -3.5050 hc         1 HAN       0.017700
@<TRIPOS>BOND
     1     1     2 1   
     2     1     9 1   
     3     1    13 1   
     4     2     3 2   
     5     2    12 1   
     6     3     8 1   
     7     4     5 ar  
     8     4     8 ar  
     9     4    20 1   
    10     5     6 ar  
    11     5    10 1   
    12     6     7 ar  
    13     6    11 1   
    14     7     9 ar  
    15     7    21 1   
    16     8     9 ar  
    17    10    22 1   
    18    10    23 1   
    19    10    24 1   
    20    11    25 1   
    21    11    26 1   
    22    11    27 1   
    23    12    28 1   
    24    12    29 1   
    25    13    14 1   
    26    13    30 1   
    27    13    31 1   
    28    14    15 1   
    29    14    32 1   
    30    14    33 1   
    31    15    16 1   
    32    15    34 1   
    33    15    35 1   
    34    16    17 1   
    35    16    36 1   
    36    16    37 1   
    37    17    18 1   
    38    17    19 1   
@<TRIPOS>SUBSTRUCTURE
     1 HAN         1 TEMP              0 ****  ****    0 ROOT
