@<TRIPOS>MOLECULE
HAO
   28    28     1     0     0
SMALL
No Charge or Current Charge


@<TRIPOS>ATOM
      1 N8           3.6080    -3.3900     0.1880 n8         1 HAO      -0.722200
      2 N9           2.6330    -2.3060     0.0510 ns         1 HAO      -0.416300
      3 C10          2.8620    -0.9590     0.3630 c          1 HAO       0.650700
      4 O11          3.9460    -0.5950     0.8080 o          1 HAO      -0.563100
      5 C12          1.6720    -0.0280     0.1680 ca         1 HAO      -0.165600
      6 C13          0.3520    -0.5540     0.1480 ca         1 HAO      -0.139000
      7 C14          1.8440     1.3720     0.0110 ca         1 HAO       0.114100
      8 C15          3.3790     3.3110    -0.1670 c3         1 HAO       0.154900
      9 O15          3.1200     1.9050    -0.0070 os         1 HAO      -0.336100
     10 C17          0.7120     2.2010    -0.1590 ca         1 HAO      -0.176000
     11 C18         -0.5820     1.6590    -0.1750 ca         1 HAO      -0.105000
     12 C19         -0.7730     0.2730    -0.0220 ca         1 HAO      -0.016000
     13 N20         -2.0530    -0.3490    -0.0210 ns         1 HAO      -0.147000
     14 C21         -3.3460     0.1450    -0.1860 c          1 HAO       0.443100
     15 O22         -3.6110     1.3360    -0.3880 o          1 HAO      -0.614100
     16 C23         -4.4740    -1.0200    -0.0870 c          1 HAO       0.669000
     17 O24         -4.1050    -2.1760     0.1130 o          1 HAO      -0.685000
     18 HN8          3.2640    -4.1280     0.8200 hn         1 HAO       0.387500
     19 H13          0.1830    -1.6180     0.2880 ha         1 HAO       0.117000
     20 H15          2.9150     3.8880     0.6440 h1         1 HAO       0.032033
     21 H15A         4.4590     3.5030    -0.1450 h1         1 HAO       0.032033
     22 H15B         2.9890     3.6730    -1.1270 h1         1 HAO       0.032033
     23 H17          0.8130     3.2750    -0.2850 ha         1 HAO       0.107000
     24 H18         -1.4210     2.3350    -0.3060 ha         1 HAO       0.152000
     25 HN20        -2.0220    -1.3510     0.1310 hn         1 HAO       0.183000
     26 O5          -5.6580    -0.7100    -0.2130 o          1 HAO      -0.685000
     27 H9           3.7990    -3.8420    -0.7190 hn         1 HAO       0.387500
     28 H10          1.7090    -2.5190    -0.3240 hn         1 HAO       0.306500
@<TRIPOS>BOND
     1     1     2 1   
     2     1    18 1   
     3     1    27 1   
     4     2     3 1   
     5     2    28 1   
     6     3     4 2   
     7     3     5 1   
     8     5     6 ar  
     9     5     7 ar  
    10     6    12 ar  
    11     6    19 1   
    12     7     9 1   
    13     7    10 ar  
    14     8     9 1   
    15     8    20 1   
    16     8    21 1   
    17     8    22 1   
    18    10    11 ar  
    19    10    23 1   
    20    11    12 ar  
    21    11    24 1   
    22    12    13 1   
    23    13    14 1   
    24    13    25 1   
    25    14    15 2   
    26    14    16 1   
    27    16    17 1   
    28    16    26 1   
@<TRIPOS>SUBSTRUCTURE
     1 HAO         1 TEMP              0 ****  ****    0 ROOT
