@<TRIPOS>MOLECULE
HAO
   28    28     1     0     0
SMALL
bcc


@<TRIPOS>ATOM
      1 N8           3.7490    -3.0420     0.1240 n8         1 HAO      -0.611800
      2 N9           2.7930    -2.0670    -0.0960 ns         1 HAO      -0.483300
      3 C10          2.6820    -1.0000     0.7150 c          1 HAO       0.717700
      4 O11          3.3980    -0.7740     1.6730 o          1 HAO      -0.563100
      5 C12          1.5450    -0.0980     0.3370 ca         1 HAO      -0.165600
      6 C13          0.2530    -0.5930     0.3200 ca         1 HAO      -0.157000
      7 C14          1.7800     1.2530     0.0510 ca         1 HAO       0.114100
      8 C15          3.3440     3.0000    -0.2960 c3         1 HAO       0.131700
      9 O15          3.0620     1.6580     0.0500 os         1 HAO      -0.312900
     10 C17          0.6940     2.0690    -0.2390 ca         1 HAO      -0.194000
     11 C18         -0.6030     1.5690    -0.2410 ca         1 HAO      -0.123000
     12 C19         -0.8430     0.2280     0.0390 ca         1 HAO       0.076600
     13 N20         -2.1050    -0.3650     0.0550 ns         1 HAO      -0.473100
     14 C21         -3.3250     0.1900    -0.1160 c          1 HAO       0.510100
     15 O22         -3.5360     1.3710    -0.3300 o          1 HAO      -0.614100
     16 C23         -4.4710    -0.8630    -0.0070 c          1 HAO       0.879600
     17 O24         -4.1090    -2.0340     0.2160 o          1 HAO      -0.790300
     18 HN8          3.2880    -3.9390     0.2070 hn         1 HAO       0.332300
     19 H13          0.0870    -1.6400     0.5450 ha         1 HAO       0.135000
     20 H15          2.9030     3.7060     0.4120 h1         1 HAO       0.032033
     21 H15A         4.4260     3.1050    -0.2660 h1         1 HAO       0.032033
     22 H15B         2.9930     3.2430    -1.3020 h1         1 HAO       0.032033
     23 H17          0.8310     3.1160    -0.4730 ha         1 HAO       0.125000
     24 H18         -1.4150     2.2400    -0.4660 ha         1 HAO       0.170000
     25 HN20        -2.1470    -1.3610     0.2260 hn         1 HAO       0.349500
     26 O5          -5.6110    -0.4150    -0.1530 o          1 HAO      -0.790300
     27 H9           4.3620    -3.0890    -0.6790 hn         1 HAO       0.332300
     28 H10          2.1890    -2.1350    -0.9030 hn         1 HAO       0.306500
@<TRIPOS>BOND
     1     1     2 1   
     2     1    18 1   
     3     1    27 1   
     4     2     3 1   
     5     2    28 1   
     6     3     4 2   
     7     3     5 1   
     8     5     6 ar  
     9     5     7 ar  
    10     6    12 ar  
    11     6    19 1   
    12     7     9 1   
    13     7    10 ar  
    14     8     9 1   
    15     8    20 1   
    16     8    21 1   
    17     8    22 1   
    18    10    11 ar  
    19    10    23 1   
    20    11    12 ar  
    21    11    24 1   
    22    12    13 1   
    23    13    14 1   
    24    13    25 1   
    25    14    15 2   
    26    14    16 1   
    27    16    17 1   
    28    16    26 1   
@<TRIPOS>SUBSTRUCTURE
     1 HAO         1 TEMP              0 ****  ****    0 ROOT
