@<TRIPOS>MOLECULE
HAQ
   31    33     1     0     0
SMALL
bcc


@<TRIPOS>ATOM
      1 N           42.1060    60.7050    19.9720 n8         1 HAQ      -0.883800
      2 CA          42.5140    61.2110    18.6800 c3         1 HAQ       0.084500
      3 CB          44.0300    61.4310    18.6310 c3         1 HAQ      -0.073400
      4 CG          44.3940    62.6850    17.8640 c3         1 HAQ      -0.010100
      5 C           42.0960    60.3180    17.5190 c          1 HAQ       0.683500
      6 O           41.5170    59.2600    17.7110 o          1 HAQ      -0.646500
      7 N2          42.3740    60.7370    16.2620 n          1 HAQ      -0.334000
      8 CA2         41.9560    59.9150    15.1240 c5         1 HAQ      -0.049300
      9 CB2         41.8500    60.9300    13.9790 c5         1 HAQ      -0.028100
     10 CG2         42.7560    62.0320    14.4330 ca         1 HAQ      -0.104300
     11 CD1         43.0480    61.8800    15.7970 ca         1 HAQ       0.116600
     12 CD2         43.2670    63.0770    13.6990 ca         1 HAQ      -0.105000
     13 CE1         43.9130    62.7650    16.4390 ca         1 HAQ      -0.117300
     14 CE2         44.0980    63.9980    14.3330 ca         1 HAQ      -0.173000
     15 CZ          44.4070    63.8270    15.6690 ca         1 HAQ      -0.121000
     16 C2          42.9720    58.7890    14.8050 c          1 HAQ       0.935600
     17 O2          44.0630    58.8010    15.3980 o          1 HAQ      -0.820800
     18 OXT         42.5740    57.9810    13.9430 o          1 HAQ      -0.820800
     19 H           41.1080    60.5330    19.9740 hn         1 HAQ       0.345800
     20 H2          42.5340    59.7990    20.1320 hn         1 HAQ       0.345800
     21 HA1         42.0220    62.1830    18.5410 h1         1 HAQ       0.065700
     22 HB2         44.3920    61.5380    19.6550 hc         1 HAQ       0.062200
     23 HB3         44.5370    60.5570    18.2100 hc         1 HAQ       0.062200
     24 HG2         44.0080    63.5500    18.4120 hc         1 HAQ       0.035200
     25 HG3         45.4810    62.8010    17.8620 hc         1 HAQ       0.035200
     26 HA2         40.9880    59.4650    15.3370 h1         1 HAQ       0.070700
     27 HB23        42.1420    60.5020    13.0200 hc         1 HAQ       0.050700
     28 HB22        40.8260    61.2980    13.8650 hc         1 HAQ       0.050700
     29 HD2         43.0280    63.1770    12.6470 ha         1 HAQ       0.121000
     30 HE2         44.5150    64.8310    13.7830 ha         1 HAQ       0.113000
     31 HZ          45.0780    64.5310    16.1500 ha         1 HAQ       0.108000
@<TRIPOS>BOND
     1     1     2 1   
     2     1    19 1   
     3     1    20 1   
     4     2     3 1   
     5     2     5 1   
     6     2    21 1   
     7     3     4 1   
     8     3    22 1   
     9     3    23 1   
    10     4    13 1   
    11     4    24 1   
    12     4    25 1   
    13     5     6 2   
    14     5     7 1   
    15     7     8 1   
    16     7    11 1   
    17     8     9 1   
    18     8    16 1   
    19     8    26 1   
    20     9    10 1   
    21     9    27 1   
    22     9    28 1   
    23    10    11 ar  
    24    10    12 ar  
    25    11    13 ar  
    26    12    14 ar  
    27    12    29 1   
    28    13    15 ar  
    29    14    15 ar  
    30    14    30 1   
    31    15    31 1   
    32    16    17 1   
    33    16    18 1   
@<TRIPOS>SUBSTRUCTURE
     1 HAQ         1 TEMP              0 ****  ****    0 ROOT
