@<TRIPOS>MOLECULE
HAQ
   31    33     1     0     0
SMALL
No Charge or Current Charge


@<TRIPOS>ATOM
      1 N           42.4110    60.4020    20.1000 n8         1 HAQ      -0.883800
      2 CA          42.5990    61.1090    18.7820 c3         1 HAQ       0.084500
      3 CB          44.0570    61.5790    18.6670 c3         1 HAQ      -0.073400
      4 CG          44.1730    62.9230    17.9460 c3         1 HAQ      -0.010100
      5 C           42.1310    60.3050    17.5150 c          1 HAQ       0.683500
      6 O           41.5070    59.2540    17.6700 o          1 HAQ      -0.646500
      7 N2          42.3930    60.7710    16.2000 n          1 HAQ      -0.334000
      8 CA2         41.8240    59.9790    15.0490 c5         1 HAQ      -0.049300
      9 CB2         42.1450    60.8720    13.7870 c5         1 HAQ      -0.028100
     10 CG2         42.9240    62.0230    14.3870 ca         1 HAQ      -0.104300
     11 CD1         43.0990    61.9310    15.7630 ca         1 HAQ       0.116600
     12 CD2         43.4540    63.0890    13.6480 ca         1 HAQ      -0.105000
     13 CE1         43.8470    62.9200    16.4580 ca         1 HAQ      -0.117300
     14 CE2         44.1760    64.0860    14.3190 ca         1 HAQ      -0.173000
     15 CZ          44.3710    63.9980    15.7080 ca         1 HAQ      -0.121000
     16 C2          42.4250    58.5470    14.8360 c          1 HAQ       0.935600
     17 O2          43.6050    58.3300    15.0960 o          1 HAQ      -0.820800
     18 OXT         41.6910    57.6490    14.4360 o          1 HAQ      -0.820800
     19 H           41.4330    60.0970    20.1730 hn         1 HAQ       0.345800
     20 H2          42.9330    59.5200    20.0820 hn         1 HAQ       0.345800
     21 HA1         41.9560    61.9990    18.8140 h1         1 HAQ       0.065700
     22 HB2         44.4830    61.7110    19.6710 hc         1 HAQ       0.062200
     23 HB3         44.6700    60.8210    18.1640 hc         1 HAQ       0.062200
     24 HG2         43.5420    63.6610    18.4570 hc         1 HAQ       0.035200
     25 HG3         45.2030    63.2740    18.0820 hc         1 HAQ       0.035200
     26 HA2         40.7390    59.8630    15.1650 h1         1 HAQ       0.070700
     27 HB23        42.7300    60.3350    13.0310 hc         1 HAQ       0.050700
     28 HB22        41.2260    61.2160    13.2990 hc         1 HAQ       0.050700
     29 HD2         43.3080    63.1430    12.5710 ha         1 HAQ       0.121000
     30 HE2         44.5930    64.9230    13.7620 ha         1 HAQ       0.113000
     31 HZ          44.9450    64.7770    16.2070 ha         1 HAQ       0.108000
@<TRIPOS>BOND
     1     1     2 1   
     2     1    19 1   
     3     1    20 1   
     4     2     3 1   
     5     2     5 1   
     6     2    21 1   
     7     3     4 1   
     8     3    22 1   
     9     3    23 1   
    10     4    13 1   
    11     4    24 1   
    12     4    25 1   
    13     5     6 2   
    14     5     7 1   
    15     7     8 1   
    16     7    11 1   
    17     8     9 1   
    18     8    16 1   
    19     8    26 1   
    20     9    10 1   
    21     9    27 1   
    22     9    28 1   
    23    10    11 ar  
    24    10    12 ar  
    25    11    13 ar  
    26    12    14 ar  
    27    12    29 1   
    28    13    15 ar  
    29    14    15 ar  
    30    14    30 1   
    31    15    31 1   
    32    16    17 1   
    33    16    18 1   
@<TRIPOS>SUBSTRUCTURE
     1 HAQ         1 TEMP              0 ****  ****    0 ROOT
