@<TRIPOS>MOLECULE
HAR
   26    25     1     0     0
SMALL
bcc


@<TRIPOS>ATOM
      1 N          129.1300   117.4630    87.9480 n8         1 HAR      -0.874800
      2 CA         127.8440   116.8790    87.5960 c3         1 HAR       0.019500
      3 C          126.9150   117.9490    86.9770 c          1 HAR       0.936600
      4 O          127.0490   119.1170    87.3950 o          1 HAR      -0.834800
      5 CB         127.0940   116.2230    88.7690 c3         1 HAR      -0.107400
      6 CG         127.8340   115.0430    89.3890 c3         1 HAR      -0.096400
      7 CD         127.0450   114.3050    90.4620 c3         1 HAR       0.213800
      8 NE         126.8490   115.1460    91.6350 nu         1 HAR      -0.884200
      9 CZ         126.0510   114.7880    92.6950 c2         1 HAR       0.760100
     10 NH1        125.9470   113.4090    92.8440 nu         1 HAR      -0.583700
     11 NH2        125.4330   115.5810    93.4820 n2         1 HAR      -0.864100
     12 OH1        125.4380   112.9900    94.0560 oh         1 HAR      -0.386300
     13 OXT        126.0760   117.5400    86.1500 o          1 HAR      -0.834800
     14 H          129.6820   116.8100    88.4890 hn         1 HAR       0.318800
     15 H2         128.9610   118.2640    88.5430 hn         1 HAR       0.318800
     16 HA         128.0200   116.1020    86.8440 h1         1 HAR       0.043700
     17 HB2        126.8940   116.9990    89.5170 hc         1 HAR       0.043700
     18 HB3        126.1190   115.8730    88.4140 hc         1 HAR       0.043700
     19 HG2        128.0670   114.3210    88.6020 hc         1 HAR       0.040700
     20 HG3        128.7910   115.3600    89.8140 hc         1 HAR       0.040700
     21 HD2        126.0890   113.9700    90.0420 h1         1 HAR       0.029700
     22 HD3        127.6060   113.4090    90.7380 h1         1 HAR       0.029700
     23 HE         126.7930   116.1320    91.4270 hn         1 HAR       0.423800
     24 HH1        126.8050   112.9040    92.6630 hn         1 HAR       0.407800
     25 HH2        125.5380   116.5400    93.1710 hn         1 HAR       0.381400
     26 HO1        124.5650   112.6390    93.8470 ho         1 HAR       0.415000
@<TRIPOS>BOND
     1     1     2 1   
     2     1    14 1   
     3     1    15 1   
     4     2     3 1   
     5     2     5 1   
     6     2    16 1   
     7     3     4 1   
     8     3    13 1   
     9     5     6 1   
    10     5    17 1   
    11     5    18 1   
    12     6     7 1   
    13     6    19 1   
    14     6    20 1   
    15     7     8 1   
    16     7    21 1   
    17     7    22 1   
    18     8     9 1   
    19     8    23 1   
    20     9    10 1   
    21     9    11 2   
    22    10    12 1   
    23    10    24 1   
    24    11    25 1   
    25    12    26 1   
@<TRIPOS>SUBSTRUCTURE
     1 HAR         1 TEMP              0 ****  ****    0 ROOT
