@<TRIPOS>MOLECULE
HAR
   26    25     1     0     0
SMALL
No Charge or Current Charge


@<TRIPOS>ATOM
      1 N          129.2080   117.4340    88.1330 n8         1 HAR      -0.874800
      2 CA         127.8740   116.9600    87.6070 c3         1 HAR       0.019500
      3 C          126.9820   118.0250    86.8250 c          1 HAR       0.936600
      4 O          126.6570   119.0630    87.3960 o          1 HAR      -0.834800
      5 CB         127.0660   116.2860    88.7500 c3         1 HAR      -0.107400
      6 CG         127.7270   115.0100    89.3400 c3         1 HAR      -0.096400
      7 CD         126.8580   114.2750    90.3830 c3         1 HAR       0.213800
      8 NE         126.7340   115.0670    91.6150 nu         1 HAR      -0.884200
      9 CZ         125.9210   114.7560    92.6500 c2         1 HAR       0.760100
     10 NH1        125.8820   113.4190    92.9690 nu         1 HAR      -0.583700
     11 NH2        125.3060   115.6590    93.2780 n2         1 HAR      -0.864100
     12 OH1        125.8240   113.0820    94.4000 oh         1 HAR      -0.386300
     13 OXT        126.7080   117.8120    85.6470 o          1 HAR      -0.834800
     14 H          129.6190   116.6990    88.7160 hn         1 HAR       0.318800
     15 H2         129.0510   118.2180    88.7750 hn         1 HAR       0.318800
     16 HA         128.0970   116.1720    86.8740 h1         1 HAR       0.043700
     17 HB2        126.8860   117.0170    89.5470 hc         1 HAR       0.043700
     18 HB3        126.0800   116.0100    88.3560 hc         1 HAR       0.043700
     19 HG2        127.9310   114.3110    88.5190 hc         1 HAR       0.040700
     20 HG3        128.6970   115.2550    89.7900 hc         1 HAR       0.040700
     21 HD2        125.8650   114.0790    89.9570 h1         1 HAR       0.029700
     22 HD3        127.3260   113.3070    90.6100 h1         1 HAR       0.029700
     23 HE         126.9850   116.0450    91.5420 hn         1 HAR       0.423800
     24 HH1        126.6450   112.9110    92.5270 hn         1 HAR       0.407800
     25 HH2        125.5180   116.5520    92.8230 hn         1 HAR       0.381400
     26 HO1        125.1870   112.3320    94.4790 ho         1 HAR       0.415000
@<TRIPOS>BOND
     1     1     2 1   
     2     1    14 1   
     3     1    15 1   
     4     2     3 1   
     5     2     5 1   
     6     2    16 1   
     7     3     4 1   
     8     3    13 1   
     9     5     6 1   
    10     5    17 1   
    11     5    18 1   
    12     6     7 1   
    13     6    19 1   
    14     6    20 1   
    15     7     8 1   
    16     7    21 1   
    17     7    22 1   
    18     8     9 1   
    19     8    23 1   
    20     9    10 1   
    21     9    11 2   
    22    10    12 1   
    23    10    24 1   
    24    11    25 1   
    25    12    26 1   
@<TRIPOS>SUBSTRUCTURE
     1 HAR         1 TEMP              0 ****  ****    0 ROOT
