@<TRIPOS>MOLECULE
HAT
   63    68     1     0     0
SMALL
No Charge or Current Charge


@<TRIPOS>ATOM
      1 CBF         -5.5610     2.1630    -0.8270 c5         1 HAT      -0.091400
      2 CBG         -5.5360     3.0220     0.4670 c5         1 HAT       0.157800
      3 NBH         -4.4810     2.3460     1.2490 n3         1 HAT      -0.717600
      4 CBJ         -4.1490     2.9700     2.5450 c3         1 HAT       0.153100
      5 CBI         -3.3590     2.2580     0.2830 c5         1 HAT       0.138800
      6 CBE         -4.0680     1.7170    -1.0000 c5         1 HAT       0.110700
      7 NBD         -4.0920     0.2510    -0.8430 ns         1 HAT      -0.485900
      8 CBB         -3.0420    -0.4910    -1.3500 c          1 HAT       0.611700
      9 OBC         -2.1530     0.0240    -2.0160 o          1 HAT      -0.585100
     10 CAW         -3.1450    -1.9800    -1.1050 ca         1 HAT      -0.131600
     11 CAX         -4.4250    -2.5950    -1.0640 ca         1 HAT      -0.125000
     12 CAY         -4.5420    -3.9880    -0.9210 ca         1 HAT       0.316900
     13 NAZ         -3.4740    -4.8070    -0.8230 nb         1 HAT      -0.638000
     14 CBA         -2.2470    -4.2290    -0.8510 ca         1 HAT       0.301900
     15 CAV         -2.0120    -2.8280    -0.9710 ca         1 HAT       0.280000
     16 NAQ         -0.6860    -2.3400    -0.9180 nu         1 HAT      -0.992000
     17 CAA         -0.0940    -1.2920    -0.2120 ca         1 HAT       0.341000
     18 CAB          1.1540    -0.8120    -0.6130 ca         1 HAT      -0.145000
     19 CAF         -0.7210    -0.7380     0.9070 ca         1 HAT      -0.175000
     20 CAE         -0.1210     0.3020     1.6290 ca         1 HAT       0.274000
     21 NAM         -0.7750     0.7860     2.7180 nb         1 HAT      -0.634000
     22 CAN         -0.1630     1.7900     3.3970 ca         1 HAT       0.314900
     23 CAO          1.0910     2.3040     3.0010 ca         1 HAT       0.274900
     24 NAP          1.7570     1.8260     1.9180 nb         1 HAT      -0.611000
     25 CAD          1.1560     0.8210     1.2130 ca         1 HAT       0.196000
     26 CAC          1.7940     0.2510     0.0690 cp         1 HAT       0.043000
     27 CAG          3.1230     0.7260    -0.4370 cp         1 HAT      -0.021000
     28 CAH          4.1620    -0.2100    -0.7040 ca         1 HAT      -0.111000
     29 CAI          5.3890     0.2600    -1.1970 ca         1 HAT      -0.056200
     30 NAT          6.5460    -0.4370    -1.5280 na         1 HAT      -0.088700
     31 CAU          6.6440    -1.8980    -1.3910 c3         1 HAT       0.065900
     32 CAS          7.5430     0.4470    -1.9880 cc         1 HAT      -0.156100
     33 CAR          6.9450     1.6980    -1.9220 cd         1 HAT      -0.242200
     34 CAJ          5.5960     1.5910    -1.4270 ca         1 HAT      -0.086800
     35 CAK          4.6120     2.5550    -1.1930 ca         1 HAT      -0.068000
     36 CAL          3.3680     2.1090    -0.6970 ca         1 HAT      -0.099000
     37 H1          -6.2540     1.3190    -0.7200 hc         1 HAT       0.054200
     38 H2          -5.9120     2.7490    -1.6840 hc         1 HAT       0.054200
     39 H3          -5.2640     4.0640     0.2470 h1         1 HAT       0.037700
     40 H4          -6.5070     3.0230     0.9800 h1         1 HAT       0.037700
     41 H6          -5.0320     2.9960     3.1980 h1         1 HAT       0.032033
     42 H7          -3.3630     2.4000     3.0570 h1         1 HAT       0.032033
     43 H8          -3.7930     4.0000     2.4050 h1         1 HAT       0.032033
     44 H9          -2.9240     3.2490     0.0910 h1         1 HAT       0.053200
     45 H10         -2.5500     1.6020     0.6300 h1         1 HAT       0.053200
     46 H11         -3.6090     2.0680    -1.9350 h1         1 HAT       0.072700
     47 H12         -4.7640    -0.2300    -0.2600 hn         1 HAT       0.324500
     48 H13         -5.3370    -2.0150    -1.1810 ha         1 HAT       0.130000
     49 H14         -5.5220    -4.4630    -0.9040 h4         1 HAT       0.025100
     50 H15         -1.4060    -4.9140    -0.7480 h4         1 HAT       0.023100
     51 H16         -0.0090    -2.9230    -1.4180 hn         1 HAT       0.506000
     52 H17          1.6330    -1.2470    -1.4850 ha         1 HAT       0.125000
     53 H18         -1.6790    -1.1250     1.2360 ha         1 HAT       0.135000
     54 H19         -0.6820     2.1850     4.2690 h4         1 HAT       0.025100
     55 H20          1.5690     3.1080     3.5590 h4         1 HAT       0.027100
     56 H21          4.0070    -1.2700    -0.5220 ha         1 HAT       0.112000
     57 H22          5.8840    -2.3780    -2.0190 h1         1 HAT       0.047367
     58 H23          7.6390    -2.2350    -1.7070 h1         1 HAT       0.047367
     59 H24          6.4840    -2.1810    -0.3430 h1         1 HAT       0.047367
     60 H25          8.5320     0.1280    -2.3040 h4         1 HAT       0.209000
     61 H26          7.4320     2.6290    -2.2060 ha         1 HAT       0.206000
     62 H27          4.7960     3.6090    -1.3890 ha         1 HAT       0.115000
     63 H28          2.5810     2.8380    -0.5180 ha         1 HAT       0.116000
@<TRIPOS>BOND
     1     1     2 1   
     2     1     6 1   
     3     1    37 1   
     4     1    38 1   
     5     2     3 1   
     6     2    39 1   
     7     2    40 1   
     8     3     4 1   
     9     3     5 1   
    10     4    41 1   
    11     4    42 1   
    12     4    43 1   
    13     5     6 1   
    14     5    44 1   
    15     5    45 1   
    16     6     7 1   
    17     6    46 1   
    18     7     8 1   
    19     7    47 1   
    20     8     9 2   
    21     8    10 1   
    22    10    11 ar  
    23    10    15 ar  
    24    11    12 ar  
    25    11    48 1   
    26    12    13 ar  
    27    12    49 1   
    28    13    14 ar  
    29    14    15 ar  
    30    14    50 1   
    31    15    16 1   
    32    16    17 1   
    33    16    51 1   
    34    17    18 ar  
    35    17    19 ar  
    36    18    26 ar  
    37    18    52 1   
    38    19    20 ar  
    39    19    53 1   
    40    20    21 ar  
    41    20    25 ar  
    42    21    22 ar  
    43    22    23 ar  
    44    22    54 1   
    45    23    24 ar  
    46    23    55 1   
    47    24    25 ar  
    48    25    26 ar  
    49    26    27 1   
    50    27    28 ar  
    51    27    36 ar  
    52    28    29 ar  
    53    28    56 1   
    54    29    30 1   
    55    29    34 ar  
    56    30    31 1   
    57    30    32 1   
    58    31    57 1   
    59    31    58 1   
    60    31    59 1   
    61    32    33 2   
    62    32    60 1   
    63    33    34 1   
    64    33    61 1   
    65    34    35 ar  
    66    35    36 ar  
    67    35    62 1   
    68    36    63 1   
@<TRIPOS>SUBSTRUCTURE
     1 HAT         1 TEMP              0 ****  ****    0 ROOT
