@<TRIPOS>MOLECULE
HAT
   63    68     1     0     0
SMALL
bcc


@<TRIPOS>ATOM
      1 CBF         -4.8210     2.1060     0.0520 c5         1 HAT      -0.091400
      2 CBG         -4.0270     3.2900     0.5850 c5         1 HAT       0.157800
      3 NBH         -2.6820     2.7600     0.6660 n3         1 HAT      -0.717600
      4 CBJ         -1.6740     3.7410     0.9660 c3         1 HAT       0.153100
      5 CBI         -2.4780     2.0770    -0.5950 c5         1 HAT       0.138800
      6 CBE         -3.8310     1.4000    -0.8920 c5         1 HAT       0.110700
      7 NBD         -3.8380    -0.0340    -0.6770 ns         1 HAT      -0.552900
      8 CBB         -3.2290    -0.8760    -1.5180 c          1 HAT       0.678700
      9 OBC         -2.6620    -0.5250    -2.5410 o          1 HAT      -0.585100
     10 CAW         -3.3290    -2.3320    -1.1680 ca         1 HAT      -0.131600
     11 CAX         -4.5670    -2.9490    -1.0730 ca         1 HAT      -0.208300
     12 CAY         -4.6250    -4.3270    -0.9260 ca         1 HAT       0.382200
     13 NAZ         -3.5430    -5.0910    -0.8630 nb         1 HAT      -0.638000
     14 CBA         -2.3580    -4.5010    -0.9100 ca         1 HAT       0.367200
     15 CAV         -2.1840    -3.1270    -1.0610 ca         1 HAT       0.076300
     16 NAQ         -0.9070    -2.5740    -1.0960 nu         1 HAT      -0.660000
     17 CAA         -0.4800    -1.5860    -0.2400 ca         1 HAT       0.202600
     18 CAB          0.7170    -0.8950    -0.5650 ca         1 HAT      -0.163000
     19 CAF         -1.1690    -1.2430     0.9020 ca         1 HAT      -0.258300
     20 CAE         -0.6790    -0.2220     1.7330 ca         1 HAT       0.339300
     21 NAM         -1.3630     0.0810     2.8610 nb         1 HAT      -0.634000
     22 CAN         -0.8620     1.0040     3.6330 ca         1 HAT       0.314900
     23 CAO          0.3530     1.6560     3.3330 ca         1 HAT       0.274900
     24 NAP          1.0320     1.3820     2.2520 nb         1 HAT      -0.611000
     25 CAD          0.5290     0.4520     1.4190 ca         1 HAT       0.261300
     26 CAC          1.2280     0.1010     0.2260 cp         1 HAT      -0.022300
     27 CAG          2.4790     0.7810    -0.1640 cp         1 HAT      -0.021000
     28 CAH          3.5860     0.0190    -0.5080 ca         1 HAT      -0.129000
     29 CAI          4.7410     0.6830    -0.9120 ca         1 HAT      -0.056200
     30 NAT          5.9540     0.1760    -1.2830 na         1 HAT      -0.059400
     31 CAU          6.2820    -1.2270    -1.3490 c3         1 HAT       0.036600
     32 CAS          6.7810     1.2160    -1.6000 cc         1 HAT      -0.106100
     33 CAR          6.1320     2.4070    -1.4380 cd         1 HAT      -0.192200
     34 CAJ          4.8140     2.0910    -0.9940 ca         1 HAT      -0.086800
     35 CAK          3.6820     2.8410    -0.6520 ca         1 HAT      -0.086000
     36 CAL          2.5400     2.1890    -0.2400 ca         1 HAT      -0.117000
     37 H1          -5.1050     1.4520     0.8790 hc         1 HAT       0.054200
     38 H2          -5.7370     2.4050    -0.4560 hc         1 HAT       0.054200
     39 H3          -4.0950     4.1430    -0.1140 h1         1 HAT       0.037700
     40 H4          -4.3790     3.6350     1.5590 h1         1 HAT       0.037700
     41 H6          -1.8720     4.2040     1.9330 h1         1 HAT       0.032033
     42 H7          -0.6930     3.2670     1.0280 h1         1 HAT       0.032033
     43 H8          -1.6100     4.5410     0.2110 h1         1 HAT       0.032033
     44 H9          -2.2530     2.7880    -1.4080 h1         1 HAT       0.053200
     45 H10         -1.6510     1.3670    -0.5360 h1         1 HAT       0.053200
     46 H11         -4.1020     1.5750    -1.9330 h1         1 HAT       0.072700
     47 H12         -4.1770    -0.3860     0.2050 hn         1 HAT       0.324500
     48 H13         -5.4810    -2.3740    -1.1490 ha         1 HAT       0.148000
     49 H14         -5.5840    -4.8280    -0.8630 h4         1 HAT       0.025100
     50 H15         -1.4850    -5.1400    -0.8290 h4         1 HAT       0.023100
     51 H16         -0.2110    -3.0410    -1.6540 hn         1 HAT       0.450800
     52 H17          1.2260    -1.1560    -1.4850 ha         1 HAT       0.143000
     53 H18         -2.0720    -1.7550     1.2050 ha         1 HAT       0.153000
     54 H19         -1.4030     1.2580     4.5370 h4         1 HAT       0.025100
     55 H20          0.7520     2.4030     4.0100 h4         1 HAT       0.027100
     56 H21          3.5490    -1.0620    -0.4450 ha         1 HAT       0.130000
     57 H22          5.6960    -1.7310    -2.1190 h1         1 HAT       0.047367
     58 H23          7.3350    -1.3380    -1.5880 h1         1 HAT       0.047367
     59 H24          6.0920    -1.7130    -0.3930 h1         1 HAT       0.047367
     60 H25          7.7930     1.0240    -1.9220 h4         1 HAT       0.159000
     61 H26          6.5470     3.3860    -1.6140 ha         1 HAT       0.156000
     62 H27          3.6980     3.9230    -0.7120 ha         1 HAT       0.133000
     63 H28          1.6640     2.7690     0.0150 ha         1 HAT       0.134000
@<TRIPOS>BOND
     1     1     2 1   
     2     1     6 1   
     3     1    37 1   
     4     1    38 1   
     5     2     3 1   
     6     2    39 1   
     7     2    40 1   
     8     3     4 1   
     9     3     5 1   
    10     4    41 1   
    11     4    42 1   
    12     4    43 1   
    13     5     6 1   
    14     5    44 1   
    15     5    45 1   
    16     6     7 1   
    17     6    46 1   
    18     7     8 1   
    19     7    47 1   
    20     8     9 2   
    21     8    10 1   
    22    10    11 ar  
    23    10    15 ar  
    24    11    12 ar  
    25    11    48 1   
    26    12    13 ar  
    27    12    49 1   
    28    13    14 ar  
    29    14    15 ar  
    30    14    50 1   
    31    15    16 1   
    32    16    17 1   
    33    16    51 1   
    34    17    18 ar  
    35    17    19 ar  
    36    18    26 ar  
    37    18    52 1   
    38    19    20 ar  
    39    19    53 1   
    40    20    21 ar  
    41    20    25 ar  
    42    21    22 ar  
    43    22    23 ar  
    44    22    54 1   
    45    23    24 ar  
    46    23    55 1   
    47    24    25 ar  
    48    25    26 ar  
    49    26    27 1   
    50    27    28 ar  
    51    27    36 ar  
    52    28    29 ar  
    53    28    56 1   
    54    29    30 1   
    55    29    34 ar  
    56    30    31 1   
    57    30    32 1   
    58    31    57 1   
    59    31    58 1   
    60    31    59 1   
    61    32    33 2   
    62    32    60 1   
    63    33    34 1   
    64    33    61 1   
    65    34    35 ar  
    66    35    36 ar  
    67    35    62 1   
    68    36    63 1   
@<TRIPOS>SUBSTRUCTURE
     1 HAT         1 TEMP              0 ****  ****    0 ROOT
