@<TRIPOS>MOLECULE
HAU
   38    39     1     0     0
SMALL
abcg2


@<TRIPOS>ATOM
      1 C            4.9830     0.1590    -0.4250 c          1 HAU       0.609100
      2 O            5.6860    -0.8440    -0.4400 o          1 HAU      -0.600100
      3 C1           5.3140     1.3430    -1.3040 c3         1 HAU      -0.177100
      4 N1           3.8960     0.2640     0.3720 n          1 HAU      -0.414800
      5 O1          -0.4090    -1.7040    -0.5360 o          1 HAU      -0.522100
      6 N2          -3.1360    -0.9430    -0.4830 nb         1 HAU      -0.674000
      7 C3           3.4490    -0.8530     1.1860 c6         1 HAU       0.096500
      8 N3          -1.2910     0.1350     0.4930 ns         1 HAU      -0.333900
      9 C4           2.1030    -1.3720     0.6940 c6         1 HAU      -0.091400
     10 C5           1.0730    -0.2480     0.6790 c6         1 HAU      -0.146700
     11 C6           1.5970     0.9380    -0.1430 c6         1 HAU      -0.091400
     12 C7           2.9640     1.3760     0.3680 c6         1 HAU       0.096500
     13 C8          -0.2740    -0.7090     0.1430 c          1 HAU       0.610100
     14 C9          -2.6430     0.0950     0.1610 ca         1 HAU       0.483900
     15 C10         -3.4360     1.1820     0.5500 ca         1 HAU      -0.216000
     16 C11         -4.7780     1.1580     0.2430 ca         1 HAU      -0.047000
     17 C12         -5.3210     0.0710    -0.4460 ca         1 HAU      -0.161300
     18 C13         -4.4350    -0.9430    -0.7740 ca         1 HAU       0.372900
     19 C14         -6.7710     0.0070    -0.8120 c3         1 HAU      -0.035800
     20 H1           4.5220     1.5380    -2.0280 hc         1 HAU       0.060033
     21 H1A          5.4590     2.2560    -0.7260 hc         1 HAU       0.060033
     22 H1B          6.2310     1.1340    -1.8480 hc         1 HAU       0.060033
     23 H3           4.1960    -1.6400     1.1630 h1         1 HAU       0.056200
     24 H3A          3.3610    -0.5130     2.2240 h1         1 HAU       0.056200
     25 HN3         -1.0230     0.9310     1.0520 hn         1 HAU       0.148000
     26 H4           2.2220    -1.7870    -0.3090 hc         1 HAU       0.062450
     27 H4A          1.7740    -2.1850     1.3450 hc         1 HAU       0.062450
     28 H5           0.9260     0.1000     1.7100 hc         1 HAU       0.054700
     29 H6           1.6780     0.6510    -1.1960 hc         1 HAU       0.062450
     30 H6A          0.9130     1.7870    -0.0900 hc         1 HAU       0.062450
     31 H7           2.8680     1.7540     1.3920 h1         1 HAU       0.056200
     32 H7A          3.3420     2.1970    -0.2340 h1         1 HAU       0.056200
     33 H10         -3.0040     2.0220     1.0790 ha         1 HAU       0.118000
     34 H11         -5.4080     1.9880     0.5380 ha         1 HAU       0.117000
     35 H13         -4.7960    -1.8200    -1.3040 h4         1 HAU       0.023100
     36 H14         -7.0240     0.7610    -1.5590 hc         1 HAU       0.043367
     37 H14A        -7.0340    -0.9660    -1.2240 hc         1 HAU       0.043367
     38 H14B        -7.4080     0.1860     0.0550 hc         1 HAU       0.043367
@<TRIPOS>BOND
     1     1     2 2   
     2     1     3 1   
     3     1     4 1   
     4     3    20 1   
     5     3    21 1   
     6     3    22 1   
     7     4     7 1   
     8     4    12 1   
     9     5    13 2   
    10     6    14 ar  
    11     6    18 ar  
    12     7     9 1   
    13     7    23 1   
    14     7    24 1   
    15     8    13 1   
    16     8    14 1   
    17     8    25 1   
    18     9    10 1   
    19     9    26 1   
    20     9    27 1   
    21    10    11 1   
    22    10    13 1   
    23    10    28 1   
    24    11    12 1   
    25    11    29 1   
    26    11    30 1   
    27    12    31 1   
    28    12    32 1   
    29    14    15 ar  
    30    15    16 ar  
    31    15    33 1   
    32    16    17 ar  
    33    16    34 1   
    34    17    18 ar  
    35    17    19 1   
    36    18    35 1   
    37    19    36 1   
    38    19    37 1   
    39    19    38 1   
@<TRIPOS>SUBSTRUCTURE
     1 HAU         1 TEMP              0 ****  ****    0 ROOT
