@<TRIPOS>MOLECULE
HAU
   38    39     1     0     0
SMALL
No Charge or Current Charge


@<TRIPOS>ATOM
      1 C            5.1400    -0.1820    -0.2630 c          1 HAU       0.609100
      2 O            5.5790    -1.3210    -0.1690 o          1 HAU      -0.600100
      3 C1           5.8770     0.8470    -1.1230 c3         1 HAU      -0.177100
      4 N1           3.9740     0.2100     0.4390 n          1 HAU      -0.414800
      5 O1          -0.4110    -0.5470    -1.4810 o          1 HAU      -0.522100
      6 N2          -3.1670    -0.8920    -0.5060 nb         1 HAU      -0.674000
      7 C3           3.2000    -0.7440     1.2780 c6         1 HAU       0.096500
      8 N3          -1.4090     0.3510     0.3860 ns         1 HAU      -0.333900
      9 C4           1.8410    -1.0770     0.6160 c6         1 HAU      -0.091400
     10 C5           1.0550     0.2210     0.2800 c6         1 HAU      -0.146700
     11 C6           1.9100     1.2710    -0.4830 c6         1 HAU      -0.091400
     12 C7           3.2640     1.5030     0.2300 c6         1 HAU       0.096500
     13 C8          -0.3230    -0.0430    -0.3690 c          1 HAU       0.610100
     14 C9          -2.7820     0.2270     0.1380 ca         1 HAU       0.483900
     15 C10         -3.6860     1.1720     0.6450 ca         1 HAU      -0.216000
     16 C11         -5.0610     0.9830     0.4360 ca         1 HAU      -0.047000
     17 C12         -5.4750    -0.1660    -0.2600 ca         1 HAU      -0.161300
     18 C13         -4.4920    -1.0740    -0.7080 ca         1 HAU       0.372900
     19 C14         -6.9520    -0.4240    -0.5180 c3         1 HAU      -0.035800
     20 H1           5.1970     1.2210    -1.8970 hc         1 HAU       0.060033
     21 H1A          6.0820     1.7410    -0.5240 hc         1 HAU       0.060033
     22 H1B          6.7940     0.4430    -1.5660 hc         1 HAU       0.060033
     23 H3           3.7640    -1.6720     1.4490 h1         1 HAU       0.056200
     24 H3A          3.0250    -0.2900     2.2640 h1         1 HAU       0.056200
     25 HN3         -1.1850     0.8140     1.2560 hn         1 HAU       0.148000
     26 H4           2.0190    -1.6520    -0.3030 hc         1 HAU       0.062450
     27 H4A          1.2500    -1.7220     1.2810 hc         1 HAU       0.062450
     28 H5           0.8310     0.6810     1.2540 hc         1 HAU       0.054700
     29 H6           2.0960     0.9250    -1.5100 hc         1 HAU       0.062450
     30 H6A          1.3650     2.2220    -0.5660 hc         1 HAU       0.062450
     31 H7           3.0810     1.9670     1.2100 h1         1 HAU       0.056200
     32 H7A          3.8640     2.2170    -0.3480 h1         1 HAU       0.056200
     33 H10         -3.3240     2.0400     1.1880 ha         1 HAU       0.118000
     34 H11         -5.7850     1.7060     0.8080 ha         1 HAU       0.117000
     35 H13         -4.7750    -1.9790    -1.2440 h4         1 HAU       0.023100
     36 H14         -7.3090     0.1650    -1.3710 hc         1 HAU       0.043367
     37 H14A        -7.1450    -1.4810    -0.7370 hc         1 HAU       0.043367
     38 H14B        -7.5600    -0.1530     0.3540 hc         1 HAU       0.043367
@<TRIPOS>BOND
     1     1     2 2   
     2     1     3 1   
     3     1     4 1   
     4     3    20 1   
     5     3    21 1   
     6     3    22 1   
     7     4     7 1   
     8     4    12 1   
     9     5    13 2   
    10     6    14 ar  
    11     6    18 ar  
    12     7     9 1   
    13     7    23 1   
    14     7    24 1   
    15     8    13 1   
    16     8    14 1   
    17     8    25 1   
    18     9    10 1   
    19     9    26 1   
    20     9    27 1   
    21    10    11 1   
    22    10    13 1   
    23    10    28 1   
    24    11    12 1   
    25    11    29 1   
    26    11    30 1   
    27    12    31 1   
    28    12    32 1   
    29    14    15 ar  
    30    15    16 ar  
    31    15    33 1   
    32    16    17 ar  
    33    16    34 1   
    34    17    18 ar  
    35    17    19 1   
    36    18    35 1   
    37    19    36 1   
    38    19    37 1   
    39    19    38 1   
@<TRIPOS>SUBSTRUCTURE
     1 HAU         1 TEMP              0 ****  ****    0 ROOT
