@<TRIPOS>MOLECULE
HAV
   21    20     1     0     0
SMALL
No Charge or Current Charge


@<TRIPOS>ATOM
      1 NA          -1.8510    -0.3810     1.0310 n8         1 HAV      -0.989200
      2 CA          -0.4190    -0.3510     0.5700 c3         1 HAV       0.095500
      3 CB           0.4790     0.4200     1.5930 c3         1 HAV      -0.050700
      4 CG1          0.4140    -0.1870     3.0200 c3         1 HAV      -0.090100
      5 CG2          1.9570     0.5150     1.1320 c3         1 HAV      -0.090100
      6 C           -0.2330     0.1880    -0.8990 c          1 HAV       0.558100
      7 O           -0.6510     1.2850    -1.2570 o          1 HAV      -0.576100
      8 O1           0.8380    -0.2440    -3.0840 oh         1 HAV      -0.423100
      9 N            0.3890    -0.6920    -1.7820 ns         1 HAV      -0.387400
     10 HNA1        -2.4120    -0.9400     0.3750 hn         1 HAV       0.409000
     11 HNA2        -2.2500     0.5610     0.9320 hn         1 HAV       0.409000
     12 HA          -0.0700    -1.3940     0.5630 h1         1 HAV       0.059700
     13 HB           0.1010     1.4490     1.6590 hc         1 HAV       0.065700
     14 HG11         1.0580     0.3730     3.7090 hc         1 HAV       0.038200
     15 HG12        -0.6040    -0.1520     3.4240 hc         1 HAV       0.038200
     16 HG13         0.7470    -1.2320     3.0150 hc         1 HAV       0.038200
     17 HG21         2.3860    -0.4840     0.9870 hc         1 HAV       0.038200
     18 HG22         2.0500     1.0710     0.1920 hc         1 HAV       0.038200
     19 HG23         2.5640     1.0390     1.8810 hc         1 HAV       0.038200
     20 HO1          0.4720    -0.9200    -3.7020 ho         1 HAV       0.444000
     21 HN           0.8300    -1.5370    -1.4220 hn         1 HAV       0.336500
@<TRIPOS>BOND
     1     1     2 1   
     2     1    10 1   
     3     1    11 1   
     4     2     3 1   
     5     2     6 1   
     6     2    12 1   
     7     3     4 1   
     8     3     5 1   
     9     3    13 1   
    10     4    14 1   
    11     4    15 1   
    12     4    16 1   
    13     5    17 1   
    14     5    18 1   
    15     5    19 1   
    16     6     7 2   
    17     6     9 1   
    18     8     9 1   
    19     8    20 1   
    20     9    21 1   
@<TRIPOS>SUBSTRUCTURE
     1 HAV         1 TEMP              0 ****  ****    0 ROOT
