@<TRIPOS>MOLECULE
HAV
   21    20     1     0     0
SMALL
abcg2


@<TRIPOS>ATOM
      1 NA          -1.7660    -0.3840     0.9560 n8         1 HAV      -0.989200
      2 CA          -0.3680    -0.3910     0.5650 c3         1 HAV       0.095500
      3 CB           0.4840     0.4250     1.5500 c3         1 HAV      -0.050700
      4 CG1          0.3670    -0.1450     2.9580 c3         1 HAV      -0.090100
      5 CG2          1.9460     0.4770     1.1150 c3         1 HAV      -0.090100
      6 C           -0.1830     0.1510    -0.8510 c          1 HAV       0.558100
      7 O           -0.6050     1.2430    -1.1930 o          1 HAV      -0.576100
      8 O1           0.8190    -0.2940    -2.9280 oh         1 HAV      -0.423100
      9 N            0.4470    -0.6960    -1.6810 ns         1 HAV      -0.387400
     10 HNA1        -2.2950    -1.0160     0.3680 hn         1 HAV       0.409000
     11 HNA2        -2.1560     0.5390     0.8060 hn         1 HAV       0.409000
     12 HA          -0.0210    -1.4300     0.6080 h1         1 HAV       0.059700
     13 HB           0.0930     1.4490     1.5560 hc         1 HAV       0.065700
     14 HG11         0.9400     0.4570     3.6650 hc         1 HAV       0.038200
     15 HG12        -0.6670    -0.1690     3.2970 hc         1 HAV       0.038200
     16 HG13         0.7580    -1.1650     3.0000 hc         1 HAV       0.038200
     17 HG21         2.3670    -0.5280     1.0260 hc         1 HAV       0.038200
     18 HG22         2.0840     0.9820     0.1580 hc         1 HAV       0.038200
     19 HG23         2.5430     1.0180     1.8500 hc         1 HAV       0.038200
     20 HO1          0.1210    -0.5920    -3.5270 ho         1 HAV       0.444000
     21 HN           0.8890    -1.5440    -1.3580 hn         1 HAV       0.336500
@<TRIPOS>BOND
     1     1     2 1   
     2     1    10 1   
     3     1    11 1   
     4     2     3 1   
     5     2     6 1   
     6     2    12 1   
     7     3     4 1   
     8     3     5 1   
     9     3    13 1   
    10     4    14 1   
    11     4    15 1   
    12     4    16 1   
    13     5    17 1   
    14     5    18 1   
    15     5    19 1   
    16     6     7 2   
    17     6     9 1   
    18     8     9 1   
    19     8    20 1   
    20     9    21 1   
@<TRIPOS>SUBSTRUCTURE
     1 HAV         1 TEMP              0 ****  ****    0 ROOT
