@<TRIPOS>MOLECULE
HAW
   61    66     1     0     0
SMALL
No Charge or Current Charge


@<TRIPOS>ATOM
      1 CAH         -4.1200     0.6060    -0.6360 ca         1 HAW      -0.107000
      2 CAI         -5.2200     0.4270    -1.4890 ca         1 HAW      -0.057200
      3 NAT         -6.1800     1.3390    -1.9140 na         1 HAW      -0.087700
      4 CAU         -6.1680     2.7450    -1.4830 c3         1 HAW       0.064900
      5 CAS         -7.1070     0.7180    -2.7760 cc         1 HAW      -0.154100
      6 CAR         -6.6710    -0.5980    -2.8530 cd         1 HAW      -0.242200
      7 CAJ         -5.4900    -0.7890    -2.0500 ca         1 HAW      -0.084800
      8 CAK         -4.6980    -1.9170    -1.8150 ca         1 HAW      -0.068000
      9 CAL         -3.5850    -1.7640    -0.9610 ca         1 HAW      -0.098000
     10 CAG         -3.2810    -0.5080    -0.3510 cp         1 HAW      -0.030000
     11 CAC         -2.0850    -0.3410     0.5370 cp         1 HAW       0.054000
     12 CAB         -1.1890     0.7200     0.2660 ca         1 HAW      -0.155000
     13 CAD         -1.8180    -1.2090     1.6400 ca         1 HAW       0.201000
     14 NAP         -2.6730    -2.2280     1.9500 nb         1 HAW      -0.605000
     15 CAO         -2.3440    -3.0090     3.0120 ca         1 HAW       0.279900
     16 CAN         -1.1740    -2.7870     3.7720 ca         1 HAW       0.309900
     17 NAM         -0.3140    -1.7750     3.4890 nb         1 HAW      -0.643000
     18 CAE         -0.6350    -0.9840     2.4290 ca         1 HAW       0.262000
     19 CAF          0.2260     0.0760     2.1120 ca         1 HAW      -0.178000
     20 CAA         -0.0480     0.9330     1.0430 ca         1 HAW       0.333000
     21 NAQ          0.8220     1.9590     0.6850 nu         1 HAW      -1.014000
     22 CAV          2.0420     2.3710     1.2010 ca         1 HAW       0.396000
     23 CBA          2.1440     2.6660     2.5710 ca         1 HAW      -0.164000
     24 CAZ          3.3680     3.0630     3.1310 ca         1 HAW      -0.031000
     25 CAY          4.5010     3.1700     2.3120 ca         1 HAW      -0.151000
     26 CAX          4.4090     2.8880     0.9400 ca         1 HAW      -0.001000
     27 CAW          3.1750     2.4920     0.3780 ca         1 HAW      -0.356500
     28 SBB          3.0890     2.1390    -1.3780 sy         1 HAW       1.156600
     29 OBC          1.8490     2.7090    -1.9100 o          1 HAW      -0.537500
     30 OBD          4.3940     2.3600    -2.0030 o          1 HAW      -0.537500
     31 NBE          2.8470     0.4930    -1.4100 n7         1 HAW      -0.870300
     32 CBF          3.5020    -0.3370    -0.3960 c3         1 HAW       0.264100
     33 CBG          3.1470    -1.7870    -0.6480 ca         1 HAW      -0.208300
     34 CBH          4.1120    -2.7260    -1.0570 ca         1 HAW       0.124900
     35 NBI          3.7930    -4.0190    -1.2690 nb         1 HAW      -0.172000
     36 CBJ          2.5030    -4.3630    -1.0680 ca         1 HAW       0.122900
     37 NBK          1.5030    -3.5450    -0.6760 nb         1 HAW      -0.172000
     38 CBL          1.8300    -2.2540    -0.4660 ca         1 HAW       0.124900
     39 H1          -3.9150     1.5770    -0.1930 ha         1 HAW       0.114000
     40 H2          -5.2300     3.2180    -1.7970 h1         1 HAW       0.048700
     41 H3          -7.0110     3.2800    -1.9360 h1         1 HAW       0.048700
     42 H4          -6.2540     2.7960    -0.3900 h1         1 HAW       0.048700
     43 H5          -7.9460     1.2350    -3.2330 h4         1 HAW       0.210000
     44 H6          -7.1570    -1.3740    -3.4410 ha         1 HAW       0.207000
     45 H7          -4.9280    -2.8740    -2.2770 ha         1 HAW       0.117000
     46 H8          -2.9450    -2.6220    -0.7720 ha         1 HAW       0.118000
     47 H9          -1.3840     1.3750    -0.5770 ha         1 HAW       0.131000
     48 H10         -3.0240    -3.8230     3.2560 h4         1 HAW       0.032100
     49 H11         -0.9260    -3.4250     4.6190 h4         1 HAW       0.029100
     50 H12          1.1240     0.2100     2.7030 ha         1 HAW       0.139000
     51 H13          0.7350     2.2130    -0.3020 hn         1 HAW       0.533000
     52 H14          1.2650     2.5920     3.2040 ha         1 HAW       0.133000
     53 H15          3.4360     3.2890     4.1930 ha         1 HAW       0.121000
     54 H16          5.4530     3.4760     2.7410 ha         1 HAW       0.125000
     55 H17          5.3010     2.9810     0.3220 ha         1 HAW       0.142000
     56 H18          3.2240     0.2580    -2.3250 hn         1 HAW       0.486000
     57 H19          4.5950    -0.2090    -0.4230 h1         1 HAW       0.064700
     58 H20          3.1630    -0.0780     0.6160 h1         1 HAW       0.064700
     59 H21          5.1520    -2.4440    -1.2160 h4         1 HAW       0.032100
     60 H22          2.2430    -5.4060    -1.2390 h5         1 HAW       0.052100
     61 H23          1.0270    -1.5900    -0.1520 h4         1 HAW       0.032100
@<TRIPOS>BOND
     1     1     2 ar  
     2     1    10 ar  
     3     1    39 1   
     4     2     3 1   
     5     2     7 ar  
     6     3     4 1   
     7     3     5 1   
     8     4    40 1   
     9     4    41 1   
    10     4    42 1   
    11     5     6 2   
    12     5    43 1   
    13     6     7 1   
    14     6    44 1   
    15     7     8 ar  
    16     8     9 ar  
    17     8    45 1   
    18     9    10 ar  
    19     9    46 1   
    20    10    11 1   
    21    11    12 ar  
    22    11    13 ar  
    23    12    20 ar  
    24    12    47 1   
    25    13    14 ar  
    26    13    18 ar  
    27    14    15 ar  
    28    15    16 ar  
    29    15    48 1   
    30    16    17 ar  
    31    16    49 1   
    32    17    18 ar  
    33    18    19 ar  
    34    19    20 ar  
    35    19    50 1   
    36    20    21 1   
    37    21    22 1   
    38    21    51 1   
    39    22    23 ar  
    40    22    27 ar  
    41    23    24 ar  
    42    23    52 1   
    43    24    25 ar  
    44    24    53 1   
    45    25    26 ar  
    46    25    54 1   
    47    26    27 ar  
    48    26    55 1   
    49    27    28 1   
    50    28    29 2   
    51    28    30 2   
    52    28    31 1   
    53    31    32 1   
    54    31    56 1   
    55    32    33 1   
    56    32    57 1   
    57    32    58 1   
    58    33    34 ar  
    59    33    38 ar  
    60    34    35 ar  
    61    34    59 1   
    62    35    36 ar  
    63    36    37 ar  
    64    36    60 1   
    65    37    38 ar  
    66    38    61 1   
@<TRIPOS>SUBSTRUCTURE
     1 HAW         1 TEMP              0 ****  ****    0 ROOT
