@<TRIPOS>MOLECULE
HAW
   61    66     1     0     0
SMALL
abcg2


@<TRIPOS>ATOM
      1 CAH         -4.0950     0.6540    -0.5010 ca         1 HAW      -0.107000
      2 CAI         -5.2300     0.4480    -1.2810 ca         1 HAW      -0.057200
      3 NAT         -6.1190     1.3550    -1.7840 na         1 HAW      -0.087700
      4 CAU         -6.0370     2.7840    -1.6120 c3         1 HAW       0.064900
      5 CAS         -7.0750     0.6800    -2.4900 cc         1 HAW      -0.154100
      6 CAR         -6.8320    -0.6640    -2.4570 cd         1 HAW      -0.242200
      7 CAJ         -5.6470    -0.8400    -1.6830 ca         1 HAW      -0.084800
      8 CAK         -4.8870    -1.9460    -1.2820 ca         1 HAW      -0.068000
      9 CAL         -3.7670    -1.7480    -0.5030 ca         1 HAW      -0.098000
     10 CAG         -3.3610    -0.4550    -0.1070 cp         1 HAW      -0.030000
     11 CAC         -2.1280    -0.2580     0.6830 cp         1 HAW       0.054000
     12 CAB         -1.1990     0.6630     0.2790 ca         1 HAW      -0.155000
     13 CAD         -1.8830    -0.9900     1.8830 ca         1 HAW       0.201000
     14 NAP         -2.7990    -1.8600     2.3470 nb         1 HAW      -0.605000
     15 CAO         -2.5170    -2.5080     3.4450 ca         1 HAW       0.279900
     16 CAN         -1.3000    -2.3100     4.1310 ca         1 HAW       0.309900
     17 NAM         -0.4030    -1.4570     3.7220 nb         1 HAW      -0.643000
     18 CAE         -0.6740    -0.7640     2.5910 ca         1 HAW       0.262000
     19 CAF          0.2650     0.1780     2.1370 ca         1 HAW      -0.178000
     20 CAA          0.0030     0.9050     0.9970 ca         1 HAW       0.333000
     21 NAQ          0.8680     1.8260     0.4520 nu         1 HAW      -1.014000
     22 CAV          2.0230     2.3260     1.0390 ca         1 HAW       0.396000
     23 CBA          2.0080     2.7570     2.3670 ca         1 HAW      -0.164000
     24 CAZ          3.1400     3.2870     2.9580 ca         1 HAW      -0.031000
     25 CAY          4.3170     3.4260     2.2340 ca         1 HAW      -0.151000
     26 CAX          4.3530     3.0160     0.9150 ca         1 HAW      -0.001000
     27 CAW          3.2240     2.4590     0.3210 ca         1 HAW      -0.356500
     28 SBB          3.4060     1.8510    -1.3410 sy         1 HAW       1.156600
     29 OBC          2.1550     2.0460    -2.0610 o          1 HAW      -0.537500
     30 OBD          4.6300     2.4060    -1.8850 o          1 HAW      -0.537500
     31 NBE          3.6590     0.2270    -1.2390 n7         1 HAW      -0.870300
     32 CBF          2.6080    -0.6690    -0.7700 c3         1 HAW       0.264100
     33 CBG          2.9700    -2.0770    -1.1330 ca         1 HAW      -0.208300
     34 CBH          3.1560    -3.0610    -0.1770 ca         1 HAW       0.124900
     35 NBI          3.4700    -4.3120    -0.4930 nb         1 HAW      -0.172000
     36 CBJ          3.6040    -4.5790    -1.7810 ca         1 HAW       0.122900
     37 NBK          3.4570    -3.7210    -2.7810 nb         1 HAW      -0.172000
     38 CBL          3.1420    -2.4770    -2.4530 ca         1 HAW       0.124900
     39 H1          -3.7980     1.6490    -0.1920 ha         1 HAW       0.114000
     40 H2          -5.1270     3.1810    -2.0620 h1         1 HAW       0.048700
     41 H3          -6.8910     3.2510    -2.0930 h1         1 HAW       0.048700
     42 H4          -6.0480     3.0500    -0.5550 h1         1 HAW       0.048700
     43 H5          -7.8750     1.2220    -2.9710 h4         1 HAW       0.210000
     44 H6          -7.4300    -1.4290    -2.9250 ha         1 HAW       0.207000
     45 H7          -5.1710    -2.9470    -1.5790 ha         1 HAW       0.117000
     46 H8          -3.1760    -2.6020    -0.2020 ha         1 HAW       0.118000
     47 H9          -1.3700     1.2180    -0.6360 ha         1 HAW       0.131000
     48 H10         -3.2520    -3.2070     3.8280 h4         1 HAW       0.032100
     49 H11         -1.0890    -2.8720     5.0340 h4         1 HAW       0.029100
     50 H12          1.1800     0.2950     2.7030 ha         1 HAW       0.139000
     51 H13          0.7180     2.0630    -0.5170 hn         1 HAW       0.533000
     52 H14          1.0890     2.6970     2.9340 ha         1 HAW       0.133000
     53 H15          3.0920     3.6160     3.9880 ha         1 HAW       0.121000
     54 H16          5.1990     3.8540     2.6900 ha         1 HAW       0.125000
     55 H17          5.2670     3.1250     0.3480 ha         1 HAW       0.142000
     56 H18          4.5750     0.0180    -0.8560 hn         1 HAW       0.486000
     57 H19          2.4520    -0.5980     0.3110 h1         1 HAW       0.064700
     58 H20          1.6730    -0.3980    -1.2600 h1         1 HAW       0.064700
     59 H21          3.0490    -2.8320     0.8780 h4         1 HAW       0.032100
     60 H22          3.8590    -5.5990    -2.0470 h5         1 HAW       0.052100
     61 H23          3.0220    -1.7670    -3.2650 h4         1 HAW       0.032100
@<TRIPOS>BOND
     1     1     2 ar  
     2     1    10 ar  
     3     1    39 1   
     4     2     3 1   
     5     2     7 ar  
     6     3     4 1   
     7     3     5 1   
     8     4    40 1   
     9     4    41 1   
    10     4    42 1   
    11     5     6 2   
    12     5    43 1   
    13     6     7 1   
    14     6    44 1   
    15     7     8 ar  
    16     8     9 ar  
    17     8    45 1   
    18     9    10 ar  
    19     9    46 1   
    20    10    11 1   
    21    11    12 ar  
    22    11    13 ar  
    23    12    20 ar  
    24    12    47 1   
    25    13    14 ar  
    26    13    18 ar  
    27    14    15 ar  
    28    15    16 ar  
    29    15    48 1   
    30    16    17 ar  
    31    16    49 1   
    32    17    18 ar  
    33    18    19 ar  
    34    19    20 ar  
    35    19    50 1   
    36    20    21 1   
    37    21    22 1   
    38    21    51 1   
    39    22    23 ar  
    40    22    27 ar  
    41    23    24 ar  
    42    23    52 1   
    43    24    25 ar  
    44    24    53 1   
    45    25    26 ar  
    46    25    54 1   
    47    26    27 ar  
    48    26    55 1   
    49    27    28 1   
    50    28    29 2   
    51    28    30 2   
    52    28    31 1   
    53    31    32 1   
    54    31    56 1   
    55    32    33 1   
    56    32    57 1   
    57    32    58 1   
    58    33    34 ar  
    59    33    38 ar  
    60    34    35 ar  
    61    34    59 1   
    62    35    36 ar  
    63    36    37 ar  
    64    36    60 1   
    65    37    38 ar  
    66    38    61 1   
@<TRIPOS>SUBSTRUCTURE
     1 HAW         1 TEMP              0 ****  ****    0 ROOT
