@<TRIPOS>MOLECULE
HAX
   87    89     1     0     0
SMALL
abcg2


@<TRIPOS>ATOM
      1 N1A         19.4480    -7.9170    12.4870 nb         1 HAX      -0.345000
      2 C2A         18.6140    -8.0790    13.5210 ca         1 HAX       0.109900
      3 N3A         17.7530    -9.0700    13.7380 nb         1 HAX      -0.142000
      4 C4A         17.7820    -9.9820    12.7600 ca         1 HAX       0.121500
      5 C5A         18.5960    -9.9420    11.6290 ca         1 HAX      -0.082600
      6 C6A         19.4670    -8.8450    11.5120 ca         1 HAX       0.395900
      7 N6A         20.3280    -8.7000    10.4880 nv         1 HAX      -1.089900
      8 N7A         18.3510   -11.0430    10.8250 nc         1 HAX      -0.667100
      9 C8A         17.4170   -11.7230    11.4560 cd         1 HAX       0.497700
     10 N9A         17.0360   -11.1330    12.6330 na         1 HAX      -0.238300
     11 C1B         15.9760   -11.5870    13.5190 c5         1 HAX       0.270300
     12 C2B         14.5670   -11.4040    12.9290 c5         1 HAX       0.156300
     13 O2B         14.0810   -10.1060    13.1240 oh         1 HAX      -0.823000
     14 C3B         13.8000   -12.5530    13.6090 c5         1 HAX       0.196300
     15 O3B         13.4000   -12.2120    14.9250 os         1 HAX      -0.613400
     16 P3B         11.8510   -11.5990    15.1740 p5         1 HAX       1.299900
     17 O7A         11.8350   -10.2940    14.3520 o          1 HAX      -0.907500
     18 O8A         11.8290   -11.3850    16.6720 o          1 HAX      -0.907500
     19 O9A         10.8880   -12.6430    14.6380 o          1 HAX      -0.907500
     20 C4B         14.8670   -13.6520    13.6900 c5         1 HAX       0.145300
     21 O4B         16.1450   -12.9690    13.7480 os         1 HAX      -0.502000
     22 C5B         14.8710   -14.6510    12.5530 c3         1 HAX       0.226600
     23 O5B         14.8530   -13.9570    11.3090 os         1 HAX      -0.611400
     24 P1A         15.3470   -14.6950     9.9460 p5         1 HAX       1.507800
     25 O1A         14.5650   -15.9480     9.7220 o          1 HAX      -0.887000
     26 O2A         16.8420   -14.7470     9.9400 o          1 HAX      -0.887000
     27 O3A         14.9200   -13.5410     8.9010 os         1 HAX      -0.731800
     28 P2A         13.4620   -13.0770     8.3070 p5         1 HAX       1.483800
     29 O4A         13.3360   -13.6470     6.9320 o          1 HAX      -0.851500
     30 O5A         12.3830   -13.2830     9.3150 o          1 HAX      -0.851500
     31 O6A         13.7200   -11.4830     8.2400 os         1 HAX      -0.596400
     32 CBP         15.0210    -9.5190     7.6540 c3         1 HAX      -0.045000
     33 CCP         14.5570   -10.9150     7.2260 c3         1 HAX       0.245600
     34 CDP         15.7070    -8.8630     6.4510 c3         1 HAX      -0.074600
     35 CEP         13.8060    -8.6760     8.0580 c3         1 HAX      -0.074600
     36 CAP         16.0170    -9.6940     8.8350 c3         1 HAX       0.110300
     37 OAP         17.2090   -10.2840     8.3310 oh         1 HAX      -0.711000
     38 C9P         16.2950    -8.3820     9.5740 c          1 HAX       0.548100
     39 O9P         15.5560    -7.9910    10.4800 o          1 HAX      -0.568100
     40 N8P         17.3770    -7.7050     9.1620 ns         1 HAX      -0.527900
     41 C7P         17.7670    -6.4220     9.7170 c3         1 HAX       0.123000
     42 C6P         16.9940    -5.2570     9.1040 c3         1 HAX      -0.174400
     43 C5P         17.2950    -5.0700     7.6280 c          1 HAX       0.605100
     44 O5P         18.4420    -5.1700     7.1840 o          1 HAX      -0.649100
     45 N4P         16.2410    -4.7550     6.8540 ns         1 HAX      -0.508900
     46 C3P         16.3510    -4.4650     5.4340 c3         1 HAX       0.110000
     47 C2P         16.2420    -5.7130     4.5600 c3         1 HAX      -0.097400
     48 C1          16.3980    -5.3950     3.0720 c3         1 HAX      -0.147400
     49 C2          15.2660    -4.5350     2.5450 c          1 HAX       0.588100
     50 O2          14.0830    -4.8050     2.7190 o          1 HAX      -0.558100
     51 N2          15.6820    -3.4210     1.8960 ns         1 HAX      -0.395400
     52 OH          14.7740    -2.6620     1.1670 oh         1 HAX      -0.450100
     53 H2A         18.6450    -7.2980    14.2730 h5         1 HAX       0.011100
     54 H61A        20.2340    -9.2850     9.6740 hn         1 HAX       0.476000
     55 H62A        20.8080    -7.8210    10.3810 hn         1 HAX       0.476000
     56 H8A         16.9860   -12.6520    11.1130 h5         1 HAX       0.147800
     57 H1B         16.0750   -11.0100    14.4410 h2         1 HAX       0.089700
     58 H2B         14.6250   -11.6330    11.8610 h1         1 HAX       0.064700
     59 HO2A        13.1940   -10.1470    13.6180 ho         1 HAX       0.610000
     60 H3B         12.9420   -12.8750    13.0170 h1         1 HAX       0.107700
     61 H4B         14.7410   -14.2020    14.6240 h1         1 HAX       0.049700
     62 H51A        15.7650   -15.2750    12.6350 h1         1 HAX       0.012200
     63 H52A        13.9880   -15.2930    12.6350 h1         1 HAX       0.012200
     64 H121        15.4230   -11.5550     7.0500 h1         1 HAX       0.019200
     65 H122        13.9850   -10.8360     6.2980 h1         1 HAX       0.019200
     66 H131        16.0920    -7.8780     6.7120 hc         1 HAX       0.023367
     67 H132        16.5360    -9.4670     6.0810 hc         1 HAX       0.023367
     68 H133        14.9870    -8.7320     5.6420 hc         1 HAX       0.023367
     69 H141        14.0870    -7.6350     8.2190 hc         1 HAX       0.023367
     70 H142        13.0660    -8.7050     7.2550 hc         1 HAX       0.023367
     71 H143        13.3390    -9.0490     8.9680 hc         1 HAX       0.023367
     72 H10         15.5450   -10.3510     9.5720 h1         1 HAX       0.133700
     73 HO1         17.7150   -10.6390     9.0910 ho         1 HAX       0.491000
     74 HN8         17.9460    -8.1340     8.4500 hn         1 HAX       0.322500
     75 H71         17.5970    -6.4410    10.7920 h1         1 HAX       0.059700
     76 H72         18.8340    -6.2950     9.5440 h1         1 HAX       0.059700
     77 H61         15.9240    -5.3880     9.2690 hc         1 HAX       0.063200
     78 H62         17.2930    -4.3340     9.6110 hc         1 HAX       0.063200
     79 HN4         15.3260    -4.7380     7.2750 hn         1 HAX       0.327500
     80 H31         15.5630    -3.7540     5.1820 h1         1 HAX       0.035200
     81 H32         17.3100    -3.9750     5.2630 h1         1 HAX       0.035200
     82 H21         17.0170    -6.4230     4.8520 hc         1 HAX       0.085200
     83 H22         15.2790    -6.1970     4.7320 hc         1 HAX       0.085200
     84 H11         17.3650    -4.9230     2.8830 hc         1 HAX       0.058200
     85 H12         16.3730    -6.3250     2.4970 hc         1 HAX       0.058200
     86 HN2         16.6370    -3.3030     1.5930 hn         1 HAX       0.323500
     87 HO          14.4880    -1.9520     1.7620 ho         1 HAX       0.444000
@<TRIPOS>BOND
     1     1     2 ar  
     2     1     6 ar  
     3     2     3 ar  
     4     2    53 1   
     5     3     4 ar  
     6     4     5 ar  
     7     4    10 1   
     8     5     6 ar  
     9     5     8 1   
    10     6     7 1   
    11     7    54 1   
    12     7    55 1   
    13     8     9 2   
    14     9    10 1   
    15     9    56 1   
    16    10    11 1   
    17    11    12 1   
    18    11    21 1   
    19    11    57 1   
    20    12    13 1   
    21    12    14 1   
    22    12    58 1   
    23    13    59 1   
    24    14    15 1   
    25    14    20 1   
    26    14    60 1   
    27    15    16 1   
    28    16    17 1   
    29    16    18 1   
    30    16    19 1   
    31    20    21 1   
    32    20    22 1   
    33    20    61 1   
    34    22    23 1   
    35    22    62 1   
    36    22    63 1   
    37    23    24 1   
    38    24    25 1   
    39    24    26 1   
    40    24    27 1   
    41    27    28 1   
    42    28    29 1   
    43    28    30 1   
    44    28    31 1   
    45    31    33 1   
    46    32    33 1   
    47    32    34 1   
    48    32    35 1   
    49    32    36 1   
    50    33    64 1   
    51    33    65 1   
    52    34    66 1   
    53    34    67 1   
    54    34    68 1   
    55    35    69 1   
    56    35    70 1   
    57    35    71 1   
    58    36    37 1   
    59    36    38 1   
    60    36    72 1   
    61    37    73 1   
    62    38    39 2   
    63    38    40 1   
    64    40    41 1   
    65    40    74 1   
    66    41    42 1   
    67    41    75 1   
    68    41    76 1   
    69    42    43 1   
    70    42    77 1   
    71    42    78 1   
    72    43    44 2   
    73    43    45 1   
    74    45    46 1   
    75    45    79 1   
    76    46    47 1   
    77    46    80 1   
    78    46    81 1   
    79    47    48 1   
    80    47    82 1   
    81    47    83 1   
    82    48    49 1   
    83    48    84 1   
    84    48    85 1   
    85    49    50 2   
    86    49    51 1   
    87    51    52 1   
    88    51    86 1   
    89    52    87 1   
@<TRIPOS>SUBSTRUCTURE
     1 HAX         1 TEMP              0 ****  ****    0 ROOT
