@<TRIPOS>MOLECULE
HAX
   87    89     1     0     0
SMALL
No Charge or Current Charge


@<TRIPOS>ATOM
      1 N1A         19.4350    -8.0010    12.2670 nb         1 HAX      -0.345000
      2 C2A         18.4520    -8.1750    13.1830 ca         1 HAX       0.109900
      3 N3A         17.5920    -9.2190    13.2610 nb         1 HAX      -0.142000
      4 C4A         17.7310   -10.1710    12.3150 ca         1 HAX       0.121500
      5 C5A         18.6880   -10.0850    11.3330 ca         1 HAX      -0.082600
      6 C6A         19.5510    -8.9640    11.3410 ca         1 HAX       0.395900
      7 N6A         20.5490    -8.7970    10.4340 nv         1 HAX      -1.089900
      8 N7A         18.6520   -11.1660    10.4580 nc         1 HAX      -0.667100
      9 C8A         17.6530   -11.9170    10.9790 cd         1 HAX       0.497700
     10 N9A         17.0460   -11.3410    12.1080 na         1 HAX      -0.238300
     11 C1B         15.9730   -11.9230    12.9010 c5         1 HAX       0.270300
     12 C2B         14.5140   -11.5290    12.5080 c5         1 HAX       0.156300
     13 O2B         14.1280   -10.1780    12.8520 oh         1 HAX      -0.823000
     14 C3B         13.7160   -12.6840    13.2300 c5         1 HAX       0.196300
     15 O3B         13.4810   -12.3470    14.6300 os         1 HAX      -0.613400
     16 P3B         12.0850   -11.6290    14.9650 p5         1 HAX       1.299900
     17 O7A         12.0240   -10.3800    14.1620 o          1 HAX      -0.907500
     18 O8A         12.0440   -11.3020    16.4140 o          1 HAX      -0.907500
     19 O9A         10.9600   -12.5340    14.6150 o          1 HAX      -0.907500
     20 C4B         14.7500   -13.8670    13.2330 c5         1 HAX       0.145300
     21 O4B         15.9840   -13.3440    12.6910 os         1 HAX      -0.502000
     22 C5B         14.3070   -15.1730    12.5120 c3         1 HAX       0.226600
     23 O5B         13.7970   -14.9360    11.1880 os         1 HAX      -0.611400
     24 P1A         14.7280   -14.8830     9.8660 p5         1 HAX       1.507800
     25 O1A         14.1510   -15.7240     8.7770 o          1 HAX      -0.887000
     26 O2A         16.1130   -15.3580    10.1570 o          1 HAX      -0.887000
     27 O3A         14.7660   -13.3340     9.5660 os         1 HAX      -0.731800
     28 P2A         13.4660   -12.8070     8.8420 p5         1 HAX       1.483800
     29 O4A         13.3490   -13.2190     7.4100 o          1 HAX      -0.851500
     30 O5A         12.2070   -13.0300     9.6110 o          1 HAX      -0.851500
     31 O6A         13.8400   -11.2420     8.9170 os         1 HAX      -0.596400
     32 CBP         14.8790    -9.1570     8.1340 c3         1 HAX      -0.045000
     33 CCP         14.4720   -10.6260     7.7880 c3         1 HAX       0.245600
     34 CDP         15.2720    -8.4320     6.8150 c3         1 HAX      -0.074600
     35 CEP         13.6530    -8.4040     8.7340 c3         1 HAX      -0.074600
     36 CAP         16.0850    -9.1720     9.1420 c3         1 HAX       0.110300
     37 OAP         17.2500    -9.7860     8.5110 oh         1 HAX      -0.711000
     38 C9P         16.4260    -7.7710     9.7530 c          1 HAX       0.548100
     39 O9P         15.8360    -7.2940    10.7120 o          1 HAX      -0.568100
     40 N8P         17.5050    -7.1290     9.1790 ns         1 HAX      -0.527900
     41 C7P         18.0760    -5.8660     9.6520 c3         1 HAX       0.123000
     42 C6P         17.3200    -4.6320     9.1250 c3         1 HAX      -0.174400
     43 C5P         17.5070    -4.4570     7.6200 c          1 HAX       0.605100
     44 O5P         18.5600    -4.0680     7.1340 o          1 HAX      -0.649100
     45 N4P         16.3920    -4.7100     6.8530 ns         1 HAX      -0.508900
     46 C3P         16.3230    -4.5660     5.3980 c3         1 HAX       0.110000
     47 C2P         17.0820    -5.6840     4.6490 c3         1 HAX      -0.097400
     48 C1          17.0490    -5.5330     3.1060 c3         1 HAX      -0.147400
     49 C2          15.6250    -5.6120     2.5360 c          1 HAX       0.588100
     50 O2          14.9930    -6.6600     2.5010 o          1 HAX      -0.558100
     51 N2          15.1180    -4.4140     2.0440 ns         1 HAX      -0.395400
     52 OH          13.9160    -4.3850     1.2370 oh         1 HAX      -0.450100
     53 H2A         18.3470    -7.4000    13.9400 h5         1 HAX       0.011100
     54 H61A        20.5860    -9.4310     9.6410 hn         1 HAX       0.476000
     55 H62A        21.0010    -7.8920    10.3520 hn         1 HAX       0.476000
     56 H8A         17.3100   -12.8710    10.5870 h5         1 HAX       0.147800
     57 H1B         16.1730   -11.6890    13.9540 h2         1 HAX       0.089700
     58 H2B         14.4050   -11.6570    11.4260 h1         1 HAX       0.064700
     59 HO2A        13.2570   -10.2600    13.3940 ho         1 HAX       0.610000
     60 H3B         12.7800   -12.9400    12.7120 h1         1 HAX       0.107700
     61 H4B         14.9650   -14.1560    14.2710 h1         1 HAX       0.049700
     62 H51A        15.1470   -15.8790    12.4960 h1         1 HAX       0.012200
     63 H52A        13.5190   -15.6370    13.1200 h1         1 HAX       0.012200
     64 H121        15.3520   -11.2000     7.4700 h1         1 HAX       0.019200
     65 H122        13.7710   -10.6020     6.9430 h1         1 HAX       0.019200
     66 H131        15.5970    -7.4050     7.0160 hc         1 HAX       0.023367
     67 H132        16.0850    -8.9520     6.2950 hc         1 HAX       0.023367
     68 H133        14.4200    -8.3820     6.1270 hc         1 HAX       0.023367
     69 H141        13.8460    -7.3280     8.8200 hc         1 HAX       0.023367
     70 H142        12.7700    -8.5280     8.0950 hc         1 HAX       0.023367
     71 H143        13.4020    -8.7810     9.7340 hc         1 HAX       0.023367
     72 H10         15.7670    -9.7720    10.0080 h1         1 HAX       0.133700
     73 HO1         17.8170   -10.1790     9.2320 ho         1 HAX       0.491000
     74 HN8         17.9660    -7.6320     8.4290 hn         1 HAX       0.322500
     75 H71         18.0540    -5.8600    10.7510 h1         1 HAX       0.059700
     76 H72         19.1280    -5.8160     9.3430 h1         1 HAX       0.059700
     77 H61         16.2580    -4.7360     9.3750 hc         1 HAX       0.063200
     78 H62         17.7310    -3.7500     9.6280 hc         1 HAX       0.063200
     79 HN4         15.5600    -5.0050     7.3490 hn         1 HAX       0.327500
     80 H31         15.2660    -4.5780     5.1040 h1         1 HAX       0.035200
     81 H32         16.7390    -3.5880     5.1210 h1         1 HAX       0.035200
     82 H21         18.1290    -5.6930     4.9770 hc         1 HAX       0.085200
     83 H22         16.6590    -6.6570     4.9250 hc         1 HAX       0.085200
     84 H11         17.5110    -4.5750     2.8390 hc         1 HAX       0.058200
     85 H12         17.6380    -6.3510     2.6740 hc         1 HAX       0.058200
     86 HN2         15.7390    -3.6100     1.9540 hn         1 HAX       0.323500
     87 HO          13.3710    -3.6760     1.6560 ho         1 HAX       0.444000
@<TRIPOS>BOND
     1     1     2 ar  
     2     1     6 ar  
     3     2     3 ar  
     4     2    53 1   
     5     3     4 ar  
     6     4     5 ar  
     7     4    10 1   
     8     5     6 ar  
     9     5     8 1   
    10     6     7 1   
    11     7    54 1   
    12     7    55 1   
    13     8     9 2   
    14     9    10 1   
    15     9    56 1   
    16    10    11 1   
    17    11    12 1   
    18    11    21 1   
    19    11    57 1   
    20    12    13 1   
    21    12    14 1   
    22    12    58 1   
    23    13    59 1   
    24    14    15 1   
    25    14    20 1   
    26    14    60 1   
    27    15    16 1   
    28    16    17 1   
    29    16    18 1   
    30    16    19 1   
    31    20    21 1   
    32    20    22 1   
    33    20    61 1   
    34    22    23 1   
    35    22    62 1   
    36    22    63 1   
    37    23    24 1   
    38    24    25 1   
    39    24    26 1   
    40    24    27 1   
    41    27    28 1   
    42    28    29 1   
    43    28    30 1   
    44    28    31 1   
    45    31    33 1   
    46    32    33 1   
    47    32    34 1   
    48    32    35 1   
    49    32    36 1   
    50    33    64 1   
    51    33    65 1   
    52    34    66 1   
    53    34    67 1   
    54    34    68 1   
    55    35    69 1   
    56    35    70 1   
    57    35    71 1   
    58    36    37 1   
    59    36    38 1   
    60    36    72 1   
    61    37    73 1   
    62    38    39 2   
    63    38    40 1   
    64    40    41 1   
    65    40    74 1   
    66    41    42 1   
    67    41    75 1   
    68    41    76 1   
    69    42    43 1   
    70    42    77 1   
    71    42    78 1   
    72    43    44 2   
    73    43    45 1   
    74    45    46 1   
    75    45    79 1   
    76    46    47 1   
    77    46    80 1   
    78    46    81 1   
    79    47    48 1   
    80    47    82 1   
    81    47    83 1   
    82    48    49 1   
    83    48    84 1   
    84    48    85 1   
    85    49    50 2   
    86    49    51 1   
    87    51    52 1   
    88    51    86 1   
    89    52    87 1   
@<TRIPOS>SUBSTRUCTURE
     1 HAX         1 TEMP              0 ****  ****    0 ROOT
