@<TRIPOS>MOLECULE
HAY
   59    61     1     0     0
SMALL
bcc


@<TRIPOS>ATOM
      1 C12         -2.2170     0.4160    -0.1760 ca         1 HAY      -0.109800
      2 C14         -4.3520     1.2600     0.5980 ca         1 HAY      -0.197500
      3 C15         -4.9990     0.1210     0.1140 ca         1 HAY       0.160100
      4 O16         -6.3290     0.0670     0.3000 os         1 HAY      -0.315900
      5 C17         -7.0500    -1.0430    -0.2240 c3         1 HAY       0.188700
      6 C18         -8.5000    -0.8170     0.0780 ca         1 HAY      -0.099300
      7 C20        -10.4740    -1.3010     1.3810 ca         1 HAY      -0.132500
      8 C21        -11.1880    -0.3520     0.6620 ca         1 HAY      -0.115000
      9 C23         -9.2240     0.1320    -0.6400 ca         1 HAY      -0.102000
     10 C24         -4.2480    -0.8720    -0.5120 ca         1 HAY      -0.197500
     11 C25         -2.8770    -0.7150    -0.6500 ca         1 HAY      -0.067000
     12 C26          6.1080    -1.4780     0.5880 c          1 HAY       0.693100
     13 C01          6.1320    -0.0980    -1.6000 c3         1 HAY      -0.096100
     14 C02          5.6410    -0.2170    -0.1570 c3         1 HAY      -0.194200
     15 C03          4.1100    -0.1750    -0.0640 c3         1 HAY      -0.080400
     16 C04          3.4250     1.0380    -0.6910 c3         1 HAY       0.081000
     17 C06          1.3250     1.4280     0.4600 cc         1 HAY       0.012600
     18 C07         -0.0110     1.3020     0.6300 cd         1 HAY      -0.236000
     19 C08         -0.7630     0.5760    -0.3360 cd         1 HAY       0.091800
     20 C09         -0.0990     0.0380    -1.4030 cc         1 HAY      -0.274200
     21 C10          1.3210     0.1510    -1.5780 c          1 HAY       0.697700
     22 C13         -2.9860     1.3970     0.4580 ca         1 HAY      -0.067000
     23 C19         -9.1340    -1.5280     1.0910 ca         1 HAY      -0.102000
     24 C22        -10.5600     0.3650    -0.3500 ca         1 HAY      -0.132500
     25 N05          1.9780     0.8910    -0.6000 n          1 HAY      -0.341000
     26 N28          6.8200    -2.3440    -0.1390 ns         1 HAY      -0.427400
     27 O11          1.9520    -0.3440    -2.5100 o          1 HAY      -0.645500
     28 O27          5.8000    -1.6670     1.7500 o          1 HAY      -0.587100
     29 S30          6.4380     1.1790     0.7460 s6         1 HAY       0.981000
     30 H1          -4.9300     2.0380     1.0800 ha         1 HAY       0.143500
     31 H2          -6.8880    -1.1190    -1.3040 h1         1 HAY       0.042700
     32 H3          -6.7050    -1.9750     0.2340 h1         1 HAY       0.042700
     33 H4         -10.9580    -1.8630     2.1690 ha         1 HAY       0.133000
     34 H5         -12.2310    -0.1740     0.8860 ha         1 HAY       0.132000
     35 H6          -8.7420     0.6880    -1.4360 ha         1 HAY       0.133000
     36 H7          -4.7050    -1.7760    -0.8910 ha         1 HAY       0.143500
     37 H8          -2.3160    -1.5120    -1.1220 ha         1 HAY       0.135000
     38 H9           6.7330    -4.1640     0.3100 ho         1 HAY       0.405000
     39 H10          5.7020    -0.8970    -2.2040 hc         1 HAY       0.065367
     40 H11          5.8220     0.8410    -2.0500 hc         1 HAY       0.065367
     41 H12          7.2190    -0.1430    -1.6820 hc         1 HAY       0.065367
     42 H13          3.7510    -1.0730    -0.5730 hc         1 HAY       0.073200
     43 H14          3.7970    -0.2700     0.9770 hc         1 HAY       0.073200
     44 H15          3.6950     1.9660    -0.1910 h1         1 HAY       0.077200
     45 H16          3.6900     1.1530    -1.7390 h1         1 HAY       0.077200
     46 H17          1.9380     1.9640     1.1710 h4         1 HAY       0.146000
     47 H18         -0.4720     1.7340     1.5050 ha         1 HAY       0.152000
     48 H19         -0.6290    -0.4980    -2.1790 ha         1 HAY       0.159000
     49 H20         -2.5190     2.3000     0.8320 ha         1 HAY       0.135000
     50 H21         -8.5790    -2.2680     1.6550 ha         1 HAY       0.133000
     51 H22        -11.1150     1.1020    -0.9150 ha         1 HAY       0.133000
     52 H23          5.6810     0.5070     2.9090 h1         1 HAY       0.110700
     53 H24          6.1030     2.2370     2.7810 h1         1 HAY       0.110700
     54 H25          4.5550     1.6570     2.1350 h1         1 HAY       0.110700
     55 H26          7.1440    -2.1710    -1.0780 hn         1 HAY       0.353500
     56 C31          5.5980     1.4000     2.2990 c3         1 HAY      -0.207300
     57 O32          7.8180     0.7710     1.0090 o          1 HAY      -0.579800
     58 O29          7.3560    -3.4390     0.4600 oh         1 HAY      -0.370100
     59 O33          6.2210     2.3950    -0.0400 o          1 HAY      -0.579800
@<TRIPOS>BOND
     1     1    11 ar  
     2     1    19 1   
     3     1    22 ar  
     4     2     3 ar  
     5     2    22 ar  
     6     2    30 1   
     7     3     4 1   
     8     3    10 ar  
     9     4     5 1   
    10     5     6 1   
    11     5    31 1   
    12     5    32 1   
    13     6     9 ar  
    14     6    23 ar  
    15     7     8 ar  
    16     7    23 ar  
    17     7    33 1   
    18     8    24 ar  
    19     8    34 1   
    20     9    24 ar  
    21     9    35 1   
    22    10    11 ar  
    23    10    36 1   
    24    11    37 1   
    25    12    14 1   
    26    12    26 1   
    27    12    28 2   
    28    13    14 1   
    29    13    39 1   
    30    13    40 1   
    31    13    41 1   
    32    14    15 1   
    33    14    29 1   
    34    15    16 1   
    35    15    42 1   
    36    15    43 1   
    37    16    25 1   
    38    16    44 1   
    39    16    45 1   
    40    17    18 2   
    41    17    25 1   
    42    17    46 1   
    43    18    19 1   
    44    18    47 1   
    45    19    20 2   
    46    20    21 1   
    47    20    48 1   
    48    21    25 1   
    49    21    27 2   
    50    22    49 1   
    51    23    50 1   
    52    24    51 1   
    53    26    55 1   
    54    26    58 1   
    55    29    56 1   
    56    29    57 2   
    57    29    59 2   
    58    38    58 1   
    59    52    56 1   
    60    53    56 1   
    61    54    56 1   
@<TRIPOS>SUBSTRUCTURE
     1 HAY         1 TEMP              0 ****  ****    0 ROOT
