@<TRIPOS>MOLECULE
HAY
   59    61     1     0     0
SMALL
No Charge or Current Charge


@<TRIPOS>ATOM
      1 C12         -2.3150     0.3980    -0.2210 ca         1 HAY      -0.109800
      2 C14         -4.4160     1.0470     0.8730 ca         1 HAY      -0.179500
      3 C15         -5.1360     0.1340     0.0940 ca         1 HAY       0.160100
      4 O16         -6.4980     0.0490     0.2900 os         1 HAY      -0.339100
      5 C17         -7.3250    -0.8560    -0.4620 c3         1 HAY       0.211900
      6 C18         -8.7660    -0.6920     0.0020 ca         1 HAY      -0.099300
      7 C20        -10.5960    -1.3230     1.4890 ca         1 HAY      -0.114500
      8 C21        -11.4360    -0.3890     0.8590 ca         1 HAY      -0.097000
      9 C23         -9.6120     0.2440    -0.6250 ca         1 HAY      -0.084000
     10 C24         -4.4490    -0.6530    -0.8500 ca         1 HAY      -0.179500
     11 C25         -3.0580    -0.5210    -1.0050 ca         1 HAY      -0.049000
     12 C26          6.3530    -1.3940     0.7750 c          1 HAY       0.626100
     13 C01          6.2700    -0.3290    -1.5870 c3         1 HAY      -0.096100
     14 C02          5.8170    -0.2230    -0.0840 c3         1 HAY      -0.305000
     15 C03          4.2400    -0.2310    -0.0070 c3         1 HAY      -0.080400
     16 C04          3.4790     0.8830    -0.7720 c3         1 HAY       0.081000
     17 C06          1.3560     1.2490     0.4740 cc         1 HAY      -0.037400
     18 C07         -0.0120     1.1590     0.6320 cd         1 HAY      -0.286000
     19 C08         -0.8400     0.5430    -0.3800 cd         1 HAY       0.091800
     20 C09         -0.1580     0.0290    -1.4690 cc         1 HAY      -0.324200
     21 C10          1.2910     0.1050    -1.6760 c          1 HAY       0.555200
     22 C13         -3.0250     1.1800     0.7220 ca         1 HAY      -0.049000
     23 C19         -9.2650    -1.4740     1.0630 ca         1 HAY      -0.084000
     24 C22        -10.9430     0.3950    -0.1980 ca         1 HAY      -0.114500
     25 N05          2.0070     0.7460    -0.6470 n          1 HAY      -0.274000
     26 N28          7.2410    -2.2760     0.1650 ns         1 HAY      -0.360400
     27 O11          1.8260    -0.3620    -2.6730 o          1 HAY      -0.570000
     28 O27          5.9620    -1.5920     1.9180 o          1 HAY      -0.587100
     29 S30          6.5700     1.2810     0.6400 s6         1 HAY       1.061000
     30 H1          -4.9410     1.6630     1.5990 ha         1 HAY       0.125500
     31 H2          -7.2590    -0.6390    -1.5360 h1         1 HAY       0.042700
     32 H3          -7.0050    -1.8940    -0.3020 h1         1 HAY       0.042700
     33 H4         -10.9760    -1.9290     2.3090 ha         1 HAY       0.115000
     34 H5         -12.4660    -0.2720     1.1900 ha         1 HAY       0.114000
     35 H6          -9.2380     0.8570    -1.4430 ha         1 HAY       0.115000
     36 H7          -4.9720    -1.3760    -1.4690 ha         1 HAY       0.125500
     37 H8          -2.5700    -1.1670    -1.7280 ha         1 HAY       0.117000
     38 H9           7.8030    -4.1060     0.4530 ho         1 HAY       0.444000
     39 H10          5.8750    -1.2380    -2.0580 hc         1 HAY       0.065367
     40 H11          5.9150     0.5240    -2.1780 hc         1 HAY       0.065367
     41 H12          7.3640    -0.3340    -1.6870 hc         1 HAY       0.065367
     42 H13          3.8860    -1.1960    -0.3950 hc         1 HAY       0.073200
     43 H14          3.9150    -0.2080     1.0400 hc         1 HAY       0.073200
     44 H15          3.7610     1.8670    -0.3790 h1         1 HAY       0.077200
     45 H16          3.7590     0.8740    -1.8320 h1         1 HAY       0.077200
     46 H17          2.0340     1.6980     1.1940 h4         1 HAY       0.196000
     47 H18         -0.4420     1.5500     1.5470 ha         1 HAY       0.202000
     48 H19         -0.6650    -0.4520    -2.2920 ha         1 HAY       0.209000
     49 H20         -2.5200     1.9210     1.3330 ha         1 HAY       0.117000
     50 H21         -8.6210    -2.1980     1.5570 ha         1 HAY       0.115000
     51 H22        -11.5920     1.1190    -0.6860 ha         1 HAY       0.115000
     52 H23          5.9460     0.7210     2.8710 h1         1 HAY       0.110700
     53 H24          6.2220     2.4830     2.6420 h1         1 HAY       0.110700
     54 H25          4.7010     1.7370     2.0390 h1         1 HAY       0.110700
     55 H26          7.6440    -2.0350    -0.7370 hn         1 HAY       0.353500
     56 C31          5.7690     1.5810     2.2190 c3         1 HAY      -0.318100
     57 O32          7.9840     0.9920     0.9100 o          1 HAY      -0.509000
     58 O29          7.9640    -3.2650     0.9410 oh         1 HAY      -0.409100
     59 O33          6.2370     2.4160    -0.2270 o          1 HAY      -0.509000
@<TRIPOS>BOND
     1     1    11 ar  
     2     1    19 1   
     3     1    22 ar  
     4     2     3 ar  
     5     2    22 ar  
     6     2    30 1   
     7     3     4 1   
     8     3    10 ar  
     9     4     5 1   
    10     5     6 1   
    11     5    31 1   
    12     5    32 1   
    13     6     9 ar  
    14     6    23 ar  
    15     7     8 ar  
    16     7    23 ar  
    17     7    33 1   
    18     8    24 ar  
    19     8    34 1   
    20     9    24 ar  
    21     9    35 1   
    22    10    11 ar  
    23    10    36 1   
    24    11    37 1   
    25    12    14 1   
    26    12    26 1   
    27    12    28 2   
    28    13    14 1   
    29    13    39 1   
    30    13    40 1   
    31    13    41 1   
    32    14    15 1   
    33    14    29 1   
    34    15    16 1   
    35    15    42 1   
    36    15    43 1   
    37    16    25 1   
    38    16    44 1   
    39    16    45 1   
    40    17    18 2   
    41    17    25 1   
    42    17    46 1   
    43    18    19 1   
    44    18    47 1   
    45    19    20 2   
    46    20    21 1   
    47    20    48 1   
    48    21    25 1   
    49    21    27 2   
    50    22    49 1   
    51    23    50 1   
    52    24    51 1   
    53    26    55 1   
    54    26    58 1   
    55    29    56 1   
    56    29    57 2   
    57    29    59 2   
    58    38    58 1   
    59    52    56 1   
    60    53    56 1   
    61    54    56 1   
@<TRIPOS>SUBSTRUCTURE
     1 HAY         1 TEMP              0 ****  ****    0 ROOT
