@<TRIPOS>MOLECULE
HAZ
   65    68     1     0     0
SMALL
No Charge or Current Charge


@<TRIPOS>ATOM
      1 O6         -12.3960   -11.4840    57.1220 o          1 HAZ      -0.740000
      2 C25        -11.4180   -11.0650    57.7210 c          1 HAZ       0.710000
      3 O5         -10.5570   -11.7870    58.1990 o          1 HAZ      -0.740000
      4 C22        -10.1920    -7.4930    56.6320 c3         1 HAZ      -0.161400
      5 C23        -10.4230    -9.0240    56.5990 c3         1 HAZ      -0.050400
      6 C24        -11.2240    -9.5410    57.8190 c3         1 HAZ      -0.203400
      7 C21         -9.3860    -7.0160    55.4140 c          1 HAZ       0.606100
      8 O4          -9.8950    -6.9420    54.3010 o          1 HAZ      -0.603100
      9 N3          -8.0770    -6.6510    55.7060 ns         1 HAZ      -0.149000
     10 C15         -4.7960    -5.1940    53.4090 ca         1 HAZ      -0.066000
     11 C16         -5.9880    -5.5640    52.7620 ca         1 HAZ      -0.116000
     12 C17         -7.0870    -6.0470    53.4940 ca         1 HAZ      -0.134000
     13 C18         -7.0110    -6.1690    54.8970 ca         1 HAZ      -0.025000
     14 C19         -5.8150    -5.8050    55.5430 ca         1 HAZ      -0.134000
     15 C20         -4.7160    -5.3220    54.8120 ca         1 HAZ      -0.116000
     16 C14         -2.4770    -4.1980    52.8980 c          1 HAZ       0.587100
     17 O3          -2.0460    -4.0360    54.0360 o          1 HAZ      -0.622100
     18 C1          -1.1570    -0.2880    50.0840 c6         1 HAZ      -0.074400
     19 C10         -0.3220    -1.5010    49.5810 c6         1 HAZ      -0.050000
     20 C11          1.9030    -2.0350    46.3340 c3         1 HAZ      -0.076100
     21 C12          0.8380    -1.7940    50.5970 c3         1 HAZ      -0.089100
     22 C2          -2.0420    -0.6330    51.3070 c6         1 HAZ      -0.098400
     23 C3          -3.0120    -1.7830    50.9650 c6         1 HAZ       0.097600
     24 O2          -3.3030    -3.9250    49.9690 o          1 HAZ      -0.641000
     25 C13         -1.6360    -3.8250    51.6670 c3         1 HAZ       0.002600
     26 N1          -2.3250    -3.0950    50.4890 n4         1 HAZ      -0.175000
     27 C5          -1.3180    -2.7360    49.3360 c6         1 HAZ       0.125300
     28 C6          -0.5350    -3.9450    48.7570 c6         1 HAZ      -0.075400
     29 C7           0.1450    -3.6120    47.4000 c6         1 HAZ      -0.060400
     30 C8           0.6880    -2.1690    47.2430 cx         1 HAZ       0.103000
     31 C9           0.4010    -1.0870    48.2540 cx         1 HAZ       0.099300
     32 O1          -0.3490    -1.1810    47.0270 op         1 HAZ      -0.452000
     33 H221       -11.1690    -6.9950    56.6230 hc         1 HAZ       0.051700
     34 H222        -9.6570    -7.2430    57.5560 hc         1 HAZ       0.051700
     35 H231       -10.9570    -9.2900    55.6780 hc         1 HAZ       0.052700
     36 H232        -9.4520    -9.5350    56.5620 hc         1 HAZ       0.052700
     37 H241       -12.1930    -9.0280    57.7820 hc         1 HAZ       0.018200
     38 H242       -10.6240    -9.2870    58.7020 hc         1 HAZ       0.018200
     39 HN3         -7.8320    -6.7540    56.6830 hn         1 HAZ       0.151000
     40 H16         -6.0680    -5.4770    51.6790 ha         1 HAZ       0.128000
     41 H17         -7.9840    -6.3240    52.9490 ha         1 HAZ       0.132000
     42 H19         -5.7330    -5.8970    56.6250 ha         1 HAZ       0.132000
     43 H20         -3.8130    -5.0580    55.3540 ha         1 HAZ       0.128000
     44 HN2         -3.9140    -4.7270    51.6030 hn         1 HAZ       0.219000
     45 H11         -0.4960     0.5540    50.3330 hc         1 HAZ       0.057200
     46 H12         -1.8050     0.0700    49.2710 hc         1 HAZ       0.057200
     47 H111         2.0680    -0.9930    46.0340 hc         1 HAZ       0.049367
     48 H112         2.8080    -2.3840    46.8450 hc         1 HAZ       0.049367
     49 H113         1.7810    -2.6300    45.4210 hc         1 HAZ       0.049367
     50 H121         1.4600    -2.6420    50.2900 hc         1 HAZ       0.043700
     51 H122         1.5120    -0.9320    50.6690 hc         1 HAZ       0.043700
     52 H123         0.4940    -1.9830    51.6160 hc         1 HAZ       0.043700
     53 H21         -1.4300    -0.8970    52.1780 hc         1 HAZ       0.061200
     54 H22         -2.6240     0.2520    51.5990 hc         1 HAZ       0.061200
     55 H31         -3.6440    -2.0420    51.8190 hx         1 HAZ       0.090200
     56 H32         -3.6710    -1.4830    50.1460 hx         1 HAZ       0.090200
     57 H131        -0.8370    -3.1960    52.0430 hx         1 HAZ       0.087700
     58 H132        -1.2050    -4.7500    51.2840 hx         1 HAZ       0.087700
     59 H5          -2.0020    -2.4100    48.5480 hx         1 HAZ       0.106700
     60 H61          0.2120    -4.3000    49.4760 hc         1 HAZ       0.069700
     61 H62         -1.2180    -4.7910    48.6070 hc         1 HAZ       0.069700
     62 H71          0.9570    -4.3310    47.2250 hc         1 HAZ       0.062700
     63 H72         -0.5770    -3.7830    46.5900 hc         1 HAZ       0.062700
     64 H9           1.0750    -0.2320    48.3220 h1         1 HAZ       0.084700
     65 N2          -3.7270    -4.7150    52.6010 ns         1 HAZ      -0.143000
@<TRIPOS>BOND
     1     1     2 1   
     2     2     3 1   
     3     2     6 1   
     4     4     5 1   
     5     4     7 1   
     6     4    33 1   
     7     4    34 1   
     8     5     6 1   
     9     5    35 1   
    10     5    36 1   
    11     6    37 1   
    12     6    38 1   
    13     7     8 2   
    14     7     9 1   
    15     9    13 1   
    16     9    39 1   
    17    10    11 ar  
    18    10    15 ar  
    19    10    65 1   
    20    11    12 ar  
    21    11    40 1   
    22    12    13 ar  
    23    12    41 1   
    24    13    14 ar  
    25    14    15 ar  
    26    14    42 1   
    27    15    43 1   
    28    16    17 2   
    29    16    25 1   
    30    16    65 1   
    31    18    19 1   
    32    18    22 1   
    33    18    45 1   
    34    18    46 1   
    35    19    21 1   
    36    19    27 1   
    37    19    31 1   
    38    20    30 1   
    39    20    47 1   
    40    20    48 1   
    41    20    49 1   
    42    21    50 1   
    43    21    51 1   
    44    21    52 1   
    45    22    23 1   
    46    22    53 1   
    47    22    54 1   
    48    23    26 1   
    49    23    55 1   
    50    23    56 1   
    51    24    26 1   
    52    25    26 1   
    53    25    57 1   
    54    25    58 1   
    55    26    27 1   
    56    27    28 1   
    57    27    59 1   
    58    28    29 1   
    59    28    60 1   
    60    28    61 1   
    61    29    30 1   
    62    29    62 1   
    63    29    63 1   
    64    30    31 1   
    65    30    32 1   
    66    31    32 1   
    67    31    64 1   
    68    44    65 1   
@<TRIPOS>SUBSTRUCTURE
     1 HAZ         1 TEMP              0 ****  ****    0 ROOT
