@<TRIPOS>MOLECULE
HAZ
   65    68     1     0     0
SMALL
abcg2


@<TRIPOS>ATOM
      1 O6         -11.8570   -11.7570    58.0990 o          1 HAZ      -0.740000
      2 C25        -10.9150   -11.1990    57.4750 c          1 HAZ       0.710000
      3 O5          -9.9750   -11.7890    56.8830 o          1 HAZ      -0.740000
      4 C22        -10.1470    -7.4620    56.4630 c3         1 HAZ      -0.161400
      5 C23        -10.1060    -8.9950    56.3730 c3         1 HAZ      -0.050400
      6 C24        -10.9190    -9.6570    57.4790 c3         1 HAZ      -0.203400
      7 C21         -9.3570    -6.8400    55.3320 c          1 HAZ       0.606100
      8 O4          -9.8160    -6.7450    54.1960 o          1 HAZ      -0.603100
      9 N3          -8.0960    -6.4510    55.6720 ns         1 HAZ      -0.149000
     10 C15         -4.8650    -4.9800    53.3970 ca         1 HAZ      -0.066000
     11 C16         -6.0840    -5.2580    52.7740 ca         1 HAZ      -0.116000
     12 C17         -7.1710    -5.7380    53.4880 ca         1 HAZ      -0.134000
     13 C18         -7.0600    -5.9510    54.8650 ca         1 HAZ      -0.025000
     14 C19         -5.8430    -5.6650    55.4900 ca         1 HAZ      -0.134000
     15 C20         -4.7560    -5.1880    54.7760 ca         1 HAZ      -0.116000
     16 C14         -2.6000    -4.0790    52.9370 c          1 HAZ       0.587100
     17 O3          -2.1440    -4.0170    54.0780 o          1 HAZ      -0.622100
     18 C1          -1.0790    -0.3430    50.1200 c6         1 HAZ      -0.074400
     19 C10         -0.3270    -1.6190    49.7070 c6         1 HAZ      -0.050000
     20 C11          1.6980    -2.3560    46.3980 c3         1 HAZ      -0.076100
     21 C12          0.8060    -1.9180    50.7070 c3         1 HAZ      -0.089100
     22 C2          -2.0170    -0.6000    51.2950 c6         1 HAZ      -0.098400
     23 C3          -2.9970    -1.7160    50.9810 c6         1 HAZ       0.097600
     24 O2          -3.3360    -3.8630    50.0880 o          1 HAZ      -0.641000
     25 C13         -1.6890    -3.6870    51.7720 c3         1 HAZ       0.002600
     26 N1          -2.3460    -3.0270    50.5910 n4         1 HAZ      -0.175000
     27 C5          -1.3510    -2.7530    49.4550 c6         1 HAZ       0.125300
     28 C6          -0.6920    -4.0220    48.9420 c6         1 HAZ      -0.075400
     29 C7          -0.0950    -3.7830    47.5490 c6         1 HAZ      -0.060400
     30 C8           0.5380    -2.4160    47.3540 cx         1 HAZ       0.103000
     31 C9           0.3690    -1.3760    48.3740 cx         1 HAZ       0.099300
     32 O1          -0.4330    -1.3390    47.1850 op         1 HAZ      -0.452000
     33 H221       -11.1780    -7.1120    56.3760 hc         1 HAZ       0.051700
     34 H222        -9.7620    -7.1380    57.4330 hc         1 HAZ       0.051700
     35 H231       -10.4880    -9.3040    55.3970 hc         1 HAZ       0.052700
     36 H232        -9.0700    -9.3340    56.4280 hc         1 HAZ       0.052700
     37 H241       -11.9570    -9.3190    57.4420 hc         1 HAZ       0.018200
     38 H242       -10.5330    -9.3430    58.4560 hc         1 HAZ       0.018200
     39 HN3         -7.8490    -6.5770    56.6420 hn         1 HAZ       0.151000
     40 H16         -6.1810    -5.0970    51.7070 ha         1 HAZ       0.128000
     41 H17         -8.1000    -5.9490    52.9840 ha         1 HAZ       0.132000
     42 H19         -5.7440    -5.8260    56.5570 ha         1 HAZ       0.132000
     43 H20         -3.8260    -4.9810    55.2800 ha         1 HAZ       0.128000
     44 HN2         -3.9640    -4.4420    51.5590 hn         1 HAZ       0.219000
     45 H11         -0.3610     0.4420    50.3670 hc         1 HAZ       0.057200
     46 H12         -1.6670     0.0110    49.2680 hc         1 HAZ       0.057200
     47 H111         2.0340    -1.3280    46.2610 hc         1 HAZ       0.049367
     48 H112         2.5300    -2.9500    46.7820 hc         1 HAZ       0.049367
     49 H113         1.4110    -2.7660    45.4260 hc         1 HAZ       0.049367
     50 H121         1.2110    -2.9220    50.5910 hc         1 HAZ       0.043700
     51 H122         1.6200    -1.2110    50.5350 hc         1 HAZ       0.043700
     52 H123         0.4990    -1.7900    51.7420 hc         1 HAZ       0.043700
     53 H21         -1.4600    -0.8170    52.2090 hc         1 HAZ       0.061200
     54 H22         -2.6080     0.2930    51.5070 hc         1 HAZ       0.061200
     55 H31         -3.6560    -1.9380    51.8160 hx         1 HAZ       0.090200
     56 H32         -3.6090    -1.4650    50.1170 hx         1 HAZ       0.090200
     57 H131        -0.9300    -3.0330    52.1810 hx         1 HAZ       0.087700
     58 H132        -1.2110    -4.5880    51.3960 hx         1 HAZ       0.087700
     59 H5          -2.0300    -2.3910    48.6850 hx         1 HAZ       0.106700
     60 H61          0.0980    -4.3470    49.6200 hc         1 HAZ       0.069700
     61 H62         -1.4310    -4.8180    48.8930 hc         1 HAZ       0.069700
     62 H71          0.6550    -4.5490    47.3470 hc         1 HAZ       0.062700
     63 H72         -0.8690    -3.8940    46.7840 hc         1 HAZ       0.062700
     64 H9           1.1110    -0.5810    48.4210 h1         1 HAZ       0.084700
     65 N2          -3.8170    -4.5240    52.5850 ns         1 HAZ      -0.143000
@<TRIPOS>BOND
     1     1     2 1   
     2     2     3 1   
     3     2     6 1   
     4     4     5 1   
     5     4     7 1   
     6     4    33 1   
     7     4    34 1   
     8     5     6 1   
     9     5    35 1   
    10     5    36 1   
    11     6    37 1   
    12     6    38 1   
    13     7     8 2   
    14     7     9 1   
    15     9    13 1   
    16     9    39 1   
    17    10    11 ar  
    18    10    15 ar  
    19    10    65 1   
    20    11    12 ar  
    21    11    40 1   
    22    12    13 ar  
    23    12    41 1   
    24    13    14 ar  
    25    14    15 ar  
    26    14    42 1   
    27    15    43 1   
    28    16    17 2   
    29    16    25 1   
    30    16    65 1   
    31    18    19 1   
    32    18    22 1   
    33    18    45 1   
    34    18    46 1   
    35    19    21 1   
    36    19    27 1   
    37    19    31 1   
    38    20    30 1   
    39    20    47 1   
    40    20    48 1   
    41    20    49 1   
    42    21    50 1   
    43    21    51 1   
    44    21    52 1   
    45    22    23 1   
    46    22    53 1   
    47    22    54 1   
    48    23    26 1   
    49    23    55 1   
    50    23    56 1   
    51    24    26 1   
    52    25    26 1   
    53    25    57 1   
    54    25    58 1   
    55    26    27 1   
    56    27    28 1   
    57    27    59 1   
    58    28    29 1   
    59    28    60 1   
    60    28    61 1   
    61    29    30 1   
    62    29    62 1   
    63    29    63 1   
    64    30    31 1   
    65    30    32 1   
    66    31    32 1   
    67    31    64 1   
    68    44    65 1   
@<TRIPOS>SUBSTRUCTURE
     1 HAZ         1 TEMP              0 ****  ****    0 ROOT
