@<TRIPOS>MOLECULE
HB0
   23    23     1     0     0
SMALL
bcc


@<TRIPOS>ATOM
      1 CAA         -1.8590     0.0640     0.3020 c6         1 HB0       0.147100
      2 CAB         -1.2800    -1.2170    -0.2770 c6         1 HB0      -0.091900
      3 CAC          0.1740    -1.3980     0.1430 c6         1 HB0      -0.068400
      4 CAD          1.0410    -0.2010    -0.2470 c6         1 HB0      -0.066700
      5 CAE          0.4430     1.0890     0.3140 c6         1 HB0      -0.068400
      6 CAF         -1.0130     1.2630    -0.1080 c6         1 HB0      -0.091900
      7 CAG          2.4700    -0.4310     0.2120 c3         1 HB0       0.143400
      8 OAH          3.2890     0.6380    -0.2070 oh         1 HB0      -0.598800
      9 OAI         -3.1990     0.1770    -0.1380 oh         1 HB0      -0.598800
     10 HAA         -1.8240    -0.0150     1.4010 h1         1 HB0       0.025700
     11 HAB         -1.8720    -2.0760     0.0490 hc         1 HB0       0.049450
     12 HABA        -1.3470    -1.1770    -1.3700 hc         1 HB0       0.049450
     13 HAC          0.2250    -1.5400     1.2290 hc         1 HB0       0.043450
     14 HACA         0.5740    -2.3120    -0.3040 hc         1 HB0       0.043450
     15 HAD          1.0410    -0.1320    -1.3440 hc         1 HB0       0.061700
     16 HAE          0.5090     1.0650     1.4090 hc         1 HB0       0.043450
     17 HAEA         1.0230     1.9540    -0.0120 hc         1 HB0       0.043450
     18 HAF         -1.0710     1.3830    -1.1960 hc         1 HB0       0.049450
     19 HAFA        -1.4210     2.1770     0.3330 hc         1 HB0       0.049450
     20 HAG          2.4780    -0.5360     1.3070 h1         1 HB0       0.016200
     21 HAGA         2.8270    -1.3860    -0.1980 h1         1 HB0       0.016200
     22 HOAH         4.1780     0.4800     0.1210 ho         1 HB0       0.403000
     23 HOAI        -3.5720     0.9790     0.2400 ho         1 HB0       0.402000
@<TRIPOS>BOND
     1     1     2 1   
     2     1     6 1   
     3     1     9 1   
     4     1    10 1   
     5     2     3 1   
     6     2    11 1   
     7     2    12 1   
     8     3     4 1   
     9     3    13 1   
    10     3    14 1   
    11     4     5 1   
    12     4     7 1   
    13     4    15 1   
    14     5     6 1   
    15     5    16 1   
    16     5    17 1   
    17     6    18 1   
    18     6    19 1   
    19     7     8 1   
    20     7    20 1   
    21     7    21 1   
    22     8    22 1   
    23     9    23 1   
@<TRIPOS>SUBSTRUCTURE
     1 HB0         1 TEMP              0 ****  ****    0 ROOT
