@<TRIPOS>MOLECULE
HB0
   23    23     1     0     0
SMALL
No Charge or Current Charge


@<TRIPOS>ATOM
      1 CAA         -1.9070     0.0540     0.2910 c6         1 HB0       0.170300
      2 CAB         -1.3000    -1.2470    -0.2910 c6         1 HB0      -0.091900
      3 CAC          0.1720    -1.4310     0.1560 c6         1 HB0      -0.068400
      4 CAD          1.0460    -0.2060    -0.2330 c6         1 HB0      -0.066700
      5 CAE          0.4280     1.1010     0.3440 c6         1 HB0      -0.068400
      6 CAF         -1.0460     1.2800    -0.1020 c6         1 HB0      -0.091900
      7 CAG          2.5240    -0.4100     0.2150 c3         1 HB0       0.166600
      8 OAH          3.3850     0.6260    -0.2720 oh         1 HB0      -0.661000
      9 OAI         -3.2450     0.2210    -0.1850 oh         1 HB0      -0.661000
     10 HAA         -1.9140    -0.0290     1.3880 h1         1 HB0       0.025700
     11 HAB         -1.8950    -2.1120     0.0320 hc         1 HB0       0.049450
     12 HABA        -1.3510    -1.2240    -1.3890 hc         1 HB0       0.049450
     13 HAC          0.2080    -1.5850     1.2440 hc         1 HB0       0.043450
     14 HACA         0.5800    -2.3440    -0.3000 hc         1 HB0       0.043450
     15 HAD          1.0650    -0.1310    -1.3300 hc         1 HB0       0.061700
     16 HAE          0.4800     1.0850     1.4420 hc         1 HB0       0.043450
     17 HAEA         1.0120     1.9730     0.0190 hc         1 HB0       0.043450
     18 HAF         -1.0830     1.4300    -1.1900 hc         1 HB0       0.049450
     19 HAFA        -1.4580     2.1910     0.3540 hc         1 HB0       0.049450
     20 HAG          2.5580    -0.4480     1.3120 h1         1 HB0       0.016200
     21 HAGA         2.8690    -1.3830    -0.1610 h1         1 HB0       0.016200
     22 HOAH         4.2900     0.4190     0.0530 ho         1 HB0       0.442000
     23 HOAI        -3.6040     1.0190     0.2610 ho         1 HB0       0.441000
@<TRIPOS>BOND
     1     1     2 1   
     2     1     6 1   
     3     1     9 1   
     4     1    10 1   
     5     2     3 1   
     6     2    11 1   
     7     2    12 1   
     8     3     4 1   
     9     3    13 1   
    10     3    14 1   
    11     4     5 1   
    12     4     7 1   
    13     4    15 1   
    14     5     6 1   
    15     5    16 1   
    16     5    17 1   
    17     6    18 1   
    18     6    19 1   
    19     7     8 1   
    20     7    20 1   
    21     7    21 1   
    22     8    22 1   
    23     9    23 1   
@<TRIPOS>SUBSTRUCTURE
     1 HB0         1 TEMP              0 ****  ****    0 ROOT
