@<TRIPOS>MOLECULE
HB2
   47    49     1     0     0
SMALL
abcg2


@<TRIPOS>ATOM
      1 CAQ         -5.7060     1.1600    -2.0810 c3         1 HB2      -0.089100
      2 CAP         -5.0560     0.8110    -0.7500 c3         1 HB2      -0.075400
      3 CAO         -3.5390     0.9480    -0.7890 c3         1 HB2      -0.077400
      4 CAN         -2.8940     0.6100     0.5590 c3         1 HB2      -0.093700
      5 CAL         -1.4110     0.7480     0.5150 cc         1 HB2       0.413800
      6 NAK         -0.7810     1.8460     0.8310 nd         1 HB2      -0.569100
      7 CAH          0.5220     1.6130     0.5070 ca         1 HB2      -0.031600
      8 CAG          1.6320     2.4930     0.6480 ca         1 HB2       0.681900
      9 NAR          1.4360     3.7330     1.1510 nv         1 HB2      -1.054900
     10 NAI          2.8250     2.1230     0.2610 nb         1 HB2      -0.791000
     11 CAA          3.0050     0.8960    -0.3030 ca         1 HB2       0.332000
     12 CAC          4.3100     0.5770    -0.7320 ca         1 HB2      -0.103000
     13 CAE          4.5930    -0.6240    -1.3350 ca         1 HB2      -0.094000
     14 CAF          3.5750    -1.5630    -1.5390 ca         1 HB2      -0.135000
     15 CAD          2.2930    -1.2870    -1.1250 ca         1 HB2      -0.086000
     16 CAB          1.9750    -0.0710    -0.4930 ca         1 HB2      -0.091000
     17 CAJ          0.6930     0.3500    -0.0230 ca         1 HB2      -0.035200
     18 NAM         -0.5640    -0.2060     0.0050 na         1 HB2      -0.143600
     19 CAS         -0.9690    -1.5600    -0.3210 c3         1 HB2       0.082600
     20 CAT         -0.8950    -2.5560     0.8480 c3         1 HB2       0.167000
     21 CAU         -1.4370    -3.8910     0.3390 c3         1 HB2      -0.126100
     22 CAV          0.5210    -2.7400     1.3840 c3         1 HB2      -0.126100
     23 OAW         -1.7290    -2.0260     1.8610 oh         1 HB2      -0.659000
     24 H1          -6.7890     1.0430    -2.0400 hc         1 HB2       0.032700
     25 H2          -5.4960     2.1930    -2.3650 hc         1 HB2       0.032700
     26 H3          -5.3340     0.5170    -2.8810 hc         1 HB2       0.032700
     27 H4          -5.4570     1.4560     0.0380 hc         1 HB2       0.037700
     28 H5          -5.3180    -0.2130    -0.4680 hc         1 HB2       0.037700
     29 H6          -3.1380     0.2960    -1.5720 hc         1 HB2       0.044700
     30 H7          -3.2680     1.9680    -1.0740 hc         1 HB2       0.044700
     31 H8          -3.2630     1.3010     1.3190 hc         1 HB2       0.070700
     32 H9          -3.1880    -0.3890     0.8780 hc         1 HB2       0.070700
     33 H10          0.5930     3.9120     1.6690 hn         1 HB2       0.487500
     34 H11          2.2470     4.2590     1.4310 hn         1 HB2       0.487500
     35 H12          5.0880     1.3140    -0.5760 ha         1 HB2       0.128000
     36 H13          5.6040    -0.8430    -1.6560 ha         1 HB2       0.113000
     37 H14          3.7920    -2.5060    -2.0220 ha         1 HB2       0.110000
     38 H15          1.5310    -2.0310    -1.2970 ha         1 HB2       0.099000
     39 H16         -1.9960    -1.5230    -0.6870 h1         1 HB2       0.069700
     40 H17         -0.3760    -1.9230    -1.1570 h1         1 HB2       0.069700
     41 H18         -0.8320    -4.2730    -0.4840 hc         1 HB2       0.047700
     42 H19         -1.4200    -4.6390     1.1330 hc         1 HB2       0.047700
     43 H20         -2.4650    -3.7940    -0.0130 hc         1 HB2       0.047700
     44 H21          0.9620    -1.8010     1.7180 hc         1 HB2       0.047700
     45 H22          0.5050    -3.4200     2.2400 hc         1 HB2       0.047700
     46 H23          1.1790    -3.1840     0.6390 hc         1 HB2       0.047700
     47 H24         -1.6590    -2.5900     2.6390 ho         1 HB2       0.449000
@<TRIPOS>BOND
     1     1     2 1   
     2     1    24 1   
     3     1    25 1   
     4     1    26 1   
     5     2     3 1   
     6     2    27 1   
     7     2    28 1   
     8     3     4 1   
     9     3    29 1   
    10     3    30 1   
    11     4     5 1   
    12     4    31 1   
    13     4    32 1   
    14     5     6 2   
    15     5    18 1   
    16     6     7 1   
    17     7     8 ar  
    18     7    17 ar  
    19     8     9 1   
    20     8    10 ar  
    21     9    33 1   
    22     9    34 1   
    23    10    11 ar  
    24    11    12 ar  
    25    11    16 ar  
    26    12    13 ar  
    27    12    35 1   
    28    13    14 ar  
    29    13    36 1   
    30    14    15 ar  
    31    14    37 1   
    32    15    16 ar  
    33    15    38 1   
    34    16    17 ar  
    35    17    18 1   
    36    18    19 1   
    37    19    20 1   
    38    19    39 1   
    39    19    40 1   
    40    20    21 1   
    41    20    22 1   
    42    20    23 1   
    43    21    41 1   
    44    21    42 1   
    45    21    43 1   
    46    22    44 1   
    47    22    45 1   
    48    22    46 1   
    49    23    47 1   
@<TRIPOS>SUBSTRUCTURE
     1 HB2         1 TEMP              0 ****  ****    0 ROOT
