@<TRIPOS>MOLECULE
HB2
   47    49     1     0     0
SMALL
No Charge or Current Charge


@<TRIPOS>ATOM
      1 CAQ         -5.9120     1.1160    -2.1000 c3         1 HB2      -0.089100
      2 CAP         -5.2080     0.8440    -0.7570 c3         1 HB2      -0.075400
      3 CAO         -3.6730     0.9910    -0.8390 c3         1 HB2      -0.077400
      4 CAN         -2.9650     0.7180     0.5080 c3         1 HB2      -0.093700
      5 CAL         -1.4640     0.8430     0.4220 cc         1 HB2       0.413800
      6 NAK         -0.8010     1.9520     0.7850 nd         1 HB2      -0.569100
      7 CAH          0.5340     1.6610     0.4790 ca         1 HB2      -0.031600
      8 CAG          1.6700     2.4810     0.6500 ca         1 HB2       0.681900
      9 NAR          1.6520     3.7090     1.1840 nv         1 HB2      -1.054900
     10 NAI          2.9040     2.1270     0.3180 nb         1 HB2      -0.791000
     11 CAA          3.0730     0.9070    -0.2540 ca         1 HB2       0.332000
     12 CAC          4.3780     0.5410    -0.6330 ca         1 HB2      -0.103000
     13 CAE          4.6400    -0.6900    -1.2480 ca         1 HB2      -0.094000
     14 CAF          3.5860    -1.5740    -1.4990 ca         1 HB2      -0.135000
     15 CAD          2.2750    -1.2380    -1.1290 ca         1 HB2      -0.086000
     16 CAB          1.9900    -0.0060    -0.4900 ca         1 HB2      -0.091000
     17 CAJ          0.6900     0.4110    -0.0670 ca         1 HB2      -0.035200
     18 NAM         -0.5880    -0.1390    -0.0710 na         1 HB2      -0.143600
     19 CAS         -0.9560    -1.5460    -0.3760 c3         1 HB2       0.082600
     20 CAT         -0.8340    -2.5670     0.8060 c3         1 HB2       0.167000
     21 CAU         -1.3430    -3.9530     0.3530 c3         1 HB2      -0.126100
     22 CAV          0.5960    -2.6930     1.3820 c3         1 HB2      -0.126100
     23 OAW         -1.6790    -2.1410     1.8770 oh         1 HB2      -0.659000
     24 H1          -6.9970     1.0000    -1.9930 hc         1 HB2       0.032700
     25 H2          -5.7080     2.1360    -2.4460 hc         1 HB2       0.032700
     26 H3          -5.5670     0.4140    -2.8680 hc         1 HB2       0.032700
     27 H4          -5.6000     1.5370    -0.0020 hc         1 HB2       0.037700
     28 H5          -5.4600    -0.1700    -0.4220 hc         1 HB2       0.037700
     29 H6          -3.2860     0.3000    -1.5990 hc         1 HB2       0.044700
     30 H7          -3.4240     2.0050    -1.1750 hc         1 HB2       0.044700
     31 H8          -3.3420     1.4230     1.2580 hc         1 HB2       0.070700
     32 H9          -3.2430    -0.2780     0.8690 hc         1 HB2       0.070700
     33 H10          0.8340     3.9240     1.7430 hn         1 HB2       0.487500
     34 H11          2.5440     4.0300     1.5350 hn         1 HB2       0.487500
     35 H12          5.1980     1.2290    -0.4500 ha         1 HB2       0.128000
     36 H13          5.6560    -0.9530    -1.5350 ha         1 HB2       0.113000
     37 H14          3.7840    -2.5280    -1.9850 ha         1 HB2       0.110000
     38 H15          1.5120    -1.9610    -1.3610 ha         1 HB2       0.099000
     39 H16         -2.0090    -1.5420    -0.6810 h1         1 HB2       0.069700
     40 H17         -0.4360    -1.9000    -1.2660 h1         1 HB2       0.069700
     41 H18         -0.7320    -4.3380    -0.4730 hc         1 HB2       0.047700
     42 H19         -1.2990    -4.6800     1.1730 hc         1 HB2       0.047700
     43 H20         -2.3820    -3.8950     0.0060 hc         1 HB2       0.047700
     44 H21          0.9820    -1.7220     1.7140 hc         1 HB2       0.047700
     45 H22          0.6110    -3.3680     2.2460 hc         1 HB2       0.047700
     46 H23          1.2850    -3.1060     0.6380 hc         1 HB2       0.047700
     47 H24         -1.5830    -2.7990     2.5990 ho         1 HB2       0.449000
@<TRIPOS>BOND
     1     1     2 1   
     2     1    24 1   
     3     1    25 1   
     4     1    26 1   
     5     2     3 1   
     6     2    27 1   
     7     2    28 1   
     8     3     4 1   
     9     3    29 1   
    10     3    30 1   
    11     4     5 1   
    12     4    31 1   
    13     4    32 1   
    14     5     6 2   
    15     5    18 1   
    16     6     7 1   
    17     7     8 ar  
    18     7    17 ar  
    19     8     9 1   
    20     8    10 ar  
    21     9    33 1   
    22     9    34 1   
    23    10    11 ar  
    24    11    12 ar  
    25    11    16 ar  
    26    12    13 ar  
    27    12    35 1   
    28    13    14 ar  
    29    13    36 1   
    30    14    15 ar  
    31    14    37 1   
    32    15    16 ar  
    33    15    38 1   
    34    16    17 ar  
    35    17    18 1   
    36    18    19 1   
    37    19    20 1   
    38    19    39 1   
    39    19    40 1   
    40    20    21 1   
    41    20    22 1   
    42    20    23 1   
    43    21    41 1   
    44    21    42 1   
    45    21    43 1   
    46    22    44 1   
    47    22    45 1   
    48    22    46 1   
    49    23    47 1   
@<TRIPOS>SUBSTRUCTURE
     1 HB2         1 TEMP              0 ****  ****    0 ROOT
