@<TRIPOS>MOLECULE
HB3
   17    17     1     0     0
SMALL
abcg2


@<TRIPOS>ATOM
      1 C1         -21.9790    -7.8920    41.6640 c3         1 HB3       0.154800
      2 C2         -22.4660    -8.0310    40.2340 c3         1 HB3       0.025600
      3 C3         -20.1350    -7.0440    39.0810 cc         1 HB3       0.500800
      4 C4         -18.0720    -6.8010    38.8800 cd         1 HB3       0.521900
      5 N1         -22.4110    -6.6350    42.2460 n8         1 HB3      -0.996200
      6 N2         -19.2300    -6.1060    38.9020 nd         1 HB3      -0.674000
      7 N3         -18.2070    -8.0930    39.0430 nc         1 HB3      -0.529800
      8 N4         -19.5310    -8.2360    39.1570 na         1 HB3      -0.195700
      9 S1         -21.8480    -6.7340    39.1110 ss         1 HB3      -0.292300
     10 H1         -22.4290    -8.7110    42.2300 h1         1 HB3       0.034200
     11 H2         -20.8940    -8.0560    41.7000 h1         1 HB3       0.034200
     12 H3         -23.5490    -7.9070    40.1880 h1         1 HB3       0.080200
     13 H4         -22.2390    -9.0160    39.8240 h1         1 HB3       0.080200
     14 H5         -17.1060    -6.3370    38.7490 h5         1 HB3       0.066100
     15 H6         -22.1640    -6.6220    43.2270 hn         1 HB3       0.406000
     16 H7         -21.8980    -5.8720    41.8240 hn         1 HB3       0.406000
     17 H8         -19.9380    -9.1510    39.2830 hn         1 HB3       0.378000
@<TRIPOS>BOND
     1     1     2 1   
     2     1     5 1   
     3     1    10 1   
     4     1    11 1   
     5     2     9 1   
     6     2    12 1   
     7     2    13 1   
     8     3     6 2   
     9     3     8 1   
    10     3     9 1   
    11     4     6 1   
    12     4     7 2   
    13     4    14 1   
    14     5    15 1   
    15     5    16 1   
    16     7     8 1   
    17     8    17 1   
@<TRIPOS>SUBSTRUCTURE
     1 HB3         1 TEMP              0 ****  ****    0 ROOT
