@<TRIPOS>MOLECULE
HB3
   17    17     1     0     0
SMALL
No Charge or Current Charge


@<TRIPOS>ATOM
      1 C1         -22.0400    -7.9440    41.6650 c3         1 HB3       0.154800
      2 C2         -22.4850    -8.0010    40.1830 c3         1 HB3       0.025600
      3 C3         -20.0570    -6.9610    39.1020 cc         1 HB3       0.500800
      4 C4         -17.9810    -6.8520    38.7400 cd         1 HB3       0.521900
      5 N1         -22.5270    -6.7270    42.3500 n8         1 HB3      -0.996200
      6 N2         -19.1480    -6.0990    38.7190 nd         1 HB3      -0.674000
      7 N3         -18.1600    -8.1300    39.0880 nc         1 HB3      -0.529800
      8 N4         -19.5080    -8.1900    39.3080 na         1 HB3      -0.195700
      9 S1         -21.7790    -6.6020    39.1820 ss         1 HB3      -0.292300
     10 H1         -22.4320    -8.8230    42.1960 h1         1 HB3       0.034200
     11 H2         -20.9440    -7.9690    41.7270 h1         1 HB3       0.034200
     12 H3         -23.5800    -7.9420    40.1400 h1         1 HB3       0.080200
     13 H4         -22.1890    -8.9590    39.7380 h1         1 HB3       0.080200
     14 H5         -17.0190    -6.4240    38.4800 h5         1 HB3       0.066100
     15 H6         -22.1080    -6.6760    43.2870 hn         1 HB3       0.406000
     16 H7         -22.1460    -5.9040    41.8680 hn         1 HB3       0.406000
     17 H8         -19.9930    -9.0410    39.5700 hn         1 HB3       0.378000
@<TRIPOS>BOND
     1     1     2 1   
     2     1     5 1   
     3     1    10 1   
     4     1    11 1   
     5     2     9 1   
     6     2    12 1   
     7     2    13 1   
     8     3     6 2   
     9     3     8 1   
    10     3     9 1   
    11     4     6 1   
    12     4     7 2   
    13     4    14 1   
    14     5    15 1   
    15     5    16 1   
    16     7     8 1   
    17     8    17 1   
@<TRIPOS>SUBSTRUCTURE
     1 HB3         1 TEMP              0 ****  ****    0 ROOT
