@<TRIPOS>MOLECULE
HB4
   36    39     1     0     0
SMALL
No Charge or Current Charge


@<TRIPOS>ATOM
      1 C4          -2.1400    -0.5870    -0.0340 ca         1 HB4      -0.121300
      2 C7           1.5310     0.4610    -0.2830 cp         1 HB4       0.234500
      3 C6           0.2850    -0.3700    -0.3090 cp         1 HB4      -0.163500
      4 C9           3.2190    -1.2470     0.7580 cc         1 HB4      -0.213200
      5 C20         -3.7760     2.1590     0.3330 c2         1 HB4       0.633100
      6 C8           2.7890    -0.0030     0.1820 ca         1 HB4      -0.183800
      7 C18         -3.4230    -2.5910    -0.3260 c5         1 HB4      -0.034100
      8 C16         -3.5520    -0.1620     0.2930 c5         1 HB4       0.274800
      9 C1           0.3220    -1.7460    -0.6700 ca         1 HB4      -0.082000
     10 C2          -0.8500    -2.5260    -0.6950 ca         1 HB4      -0.112000
     11 C3          -2.0730    -1.9240    -0.3690 ca         1 HB4      -0.066300
     12 C5          -0.9780     0.2030     0.0060 ca         1 HB4      -0.038000
     13 C10          4.5690    -1.1270     1.0410 cd         1 HB4      -0.160100
     14 N11          4.9910     0.1670     0.6580 na         1 HB4      -0.322400
     15 C12          3.8850     0.8330     0.1530 ca         1 HB4       0.123500
     16 N13          3.7890     2.0960    -0.3020 nb         1 HB4      -0.193000
     17 C14          2.5620     2.4860    -0.7160 ca         1 HB4       0.139900
     18 N15          1.4360     1.7360    -0.7200 nb         1 HB4      -0.216000
     19 C17         -4.3610    -1.3290    -0.4020 c5         1 HB4      -0.101400
     20 N19         -4.0160     1.0480    -0.4330 nu         1 HB4      -0.907400
     21 N21         -4.4430     2.3330     1.4030 n2         1 HB4      -0.859100
     22 HC9          2.6120    -2.1260     0.9710 ha         1 HB4       0.213000
     23 H18A        -3.5890    -3.2850    -1.1580 hc         1 HB4       0.056200
     24 H18B        -3.5650    -3.1470     0.6080 hc         1 HB4       0.056200
     25 HC16        -3.7240    -0.1590     1.3820 h1         1 HB4       0.096700
     26 HC1          1.2650    -2.2090    -0.9510 ha         1 HB4       0.117000
     27 HC2         -0.8060    -3.5770    -0.9680 ha         1 HB4       0.116000
     28 HC5         -1.0470     1.2510     0.2910 ha         1 HB4       0.140000
     29 HC10         5.2470    -1.8530     1.4880 h4         1 HB4       0.218000
     30 HN11         5.9280     0.5510     0.7450 hn         1 HB4       0.364000
     31 HC14         2.4700     3.5080    -1.0790 h5         1 HB4       0.048100
     32 H17B        -4.5700    -1.1090    -1.4570 hc         1 HB4       0.053200
     33 H17A        -5.3310    -1.5010     0.0770 hc         1 HB4       0.053200
     34 H34         -3.6940     1.1560    -1.3910 hn         1 HB4       0.484000
     35 H1          -3.1160     2.9060    -0.1110 h5         1 HB4      -0.033200
     36 H2          -4.1850     3.2520     1.7900 hn         1 HB4       0.381400
@<TRIPOS>BOND
     1     1     8 1   
     2     1    11 ar  
     3     1    12 ar  
     4     2     3 1   
     5     2     6 ar  
     6     2    18 ar  
     7     3     9 ar  
     8     3    12 ar  
     9     4     6 1   
    10     4    13 2   
    11     4    22 1   
    12     5    20 1   
    13     5    21 2   
    14     5    35 1   
    15     6    15 ar  
    16     7    11 1   
    17     7    19 1   
    18     7    23 1   
    19     7    24 1   
    20     8    19 1   
    21     8    20 1   
    22     8    25 1   
    23     9    10 ar  
    24     9    26 1   
    25    10    11 ar  
    26    10    27 1   
    27    12    28 1   
    28    13    14 1   
    29    13    29 1   
    30    14    15 1   
    31    14    30 1   
    32    15    16 ar  
    33    16    17 ar  
    34    17    18 ar  
    35    17    31 1   
    36    19    32 1   
    37    19    33 1   
    38    20    34 1   
    39    21    36 1   
@<TRIPOS>SUBSTRUCTURE
     1 HB4         1 TEMP              0 ****  ****    0 ROOT
