@<TRIPOS>MOLECULE
HB4
   36    39     1     0     0
SMALL
bcc


@<TRIPOS>ATOM
      1 C4          -1.9760    -0.4680     0.0030 ca         1 HB4      -0.121300
      2 C7           1.6730     0.3400    -0.2210 cp         1 HB4       0.562800
      3 C6           0.4100    -0.4170    -0.2310 cp         1 HB4      -0.163500
      4 C9           3.4240    -1.4630     0.6010 cc         1 HB4      -0.163200
      5 C20         -4.5530     2.1800     0.2520 c2         1 HB4       0.633100
      6 C8           2.9080    -0.2130     0.1350 ca         1 HB4      -0.314400
      7 C18         -3.3960    -2.3620    -0.2260 c5         1 HB4      -0.034100
      8 C16         -3.3760     0.0270     0.2640 c5         1 HB4       0.274800
      9 C1           0.3890    -1.7850    -0.5170 ca         1 HB4      -0.100000
     10 C2          -0.8040    -2.4950    -0.5390 ca         1 HB4      -0.130000
     11 C3          -1.9900    -1.8320    -0.2730 ca         1 HB4      -0.066300
     12 C5          -0.7950     0.2460     0.0220 ca         1 HB4      -0.056000
     13 C10          4.7650    -1.2860     0.7680 cd         1 HB4      -0.110100
     14 N11          5.1150    -0.0030     0.4390 na         1 HB4      -0.272100
     15 C12          4.0080     0.6740     0.0620 ca         1 HB4       0.451800
     16 N13          3.9480     1.9480    -0.2930 nb         1 HB4      -0.719000
     17 C14          2.7240     2.3540    -0.5770 ca         1 HB4       0.665900
     18 N15          1.6100     1.6280    -0.5580 nb         1 HB4      -0.742000
     19 C17         -4.2440    -1.0890    -0.3540 c5         1 HB4      -0.101400
     20 N19         -3.6090     1.3500    -0.2490 nu         1 HB4      -0.852200
     21 N21         -5.2360     1.9220     1.2970 n2         1 HB4      -0.859100
     22 HC9          2.8880    -2.3750     0.8030 ha         1 HB4       0.163000
     23 H18A        -3.6030    -3.0980    -1.0040 hc         1 HB4       0.056200
     24 H18B        -3.5760    -2.8560     0.7340 hc         1 HB4       0.056200
     25 HC16        -3.5490     0.0670     1.3440 h1         1 HB4       0.096700
     26 HC1          1.3080    -2.2980    -0.7650 ha         1 HB4       0.135000
     27 HC2         -0.7990    -3.5510    -0.7780 ha         1 HB4       0.134000
     28 HC5         -0.7930     1.3080     0.2310 ha         1 HB4       0.158000
     29 HC10         5.5130    -1.9860     1.1050 h4         1 HB4       0.168000
     30 HN11         6.0460     0.3790     0.4850 hn         1 HB4       0.313700
     31 HC14         2.6110     3.3940    -0.8620 h5         1 HB4       0.048100
     32 H17B        -4.4060    -0.8590    -1.4100 hc         1 HB4       0.053200
     33 H17A        -5.2210    -1.1680     0.1230 hc         1 HB4       0.053200
     34 H34         -3.2690     1.5500    -1.1750 hn         1 HB4       0.428800
     35 H1          -4.6410     3.0980    -0.3310 h5         1 HB4      -0.033200
     36 H2          -5.8430     2.7060     1.5020 hn         1 HB4       0.381400
@<TRIPOS>BOND
     1     1     8 1   
     2     1    11 ar  
     3     1    12 ar  
     4     2     3 1   
     5     2     6 ar  
     6     2    18 ar  
     7     3     9 ar  
     8     3    12 ar  
     9     4     6 1   
    10     4    13 2   
    11     4    22 1   
    12     5    20 1   
    13     5    21 2   
    14     5    35 1   
    15     6    15 ar  
    16     7    11 1   
    17     7    19 1   
    18     7    23 1   
    19     7    24 1   
    20     8    19 1   
    21     8    20 1   
    22     8    25 1   
    23     9    10 ar  
    24     9    26 1   
    25    10    11 ar  
    26    10    27 1   
    27    12    28 1   
    28    13    14 1   
    29    13    29 1   
    30    14    15 1   
    31    14    30 1   
    32    15    16 ar  
    33    16    17 ar  
    34    17    18 ar  
    35    17    31 1   
    36    19    32 1   
    37    19    33 1   
    38    20    34 1   
    39    21    36 1   
@<TRIPOS>SUBSTRUCTURE
     1 HB4         1 TEMP              0 ****  ****    0 ROOT
