@<TRIPOS>MOLECULE
HB5
   71    75     1     0     0
SMALL
bcc


@<TRIPOS>ATOM
      1 C5           5.6150    -0.5390    -0.3870 c          1 HB5       0.624100
      2 C6           5.0730     0.8180     0.0630 c3         1 HB5       0.093500
      3 C3           4.7790    -3.2980    -1.6760 cx         1 HB5      -0.088400
      4 C2           3.8630    -3.7030    -0.5840 cx         1 HB5      -0.075400
      5 C1           5.1500    -2.9380    -0.2650 cx         1 HB5      -0.054900
      6 C37          6.2530    -3.6600     0.4240 c2         1 HB5       0.452200
      7 N4           4.9630    -1.5920     0.1480 ns         1 HB5      -0.546900
      8 O7           6.5110    -0.6530    -1.2050 o          1 HB5      -0.591100
      9 C9           3.8640     1.1450    -0.8380 c3         1 HB5       0.002900
     10 C10          3.0460     2.2800    -0.3260 cc         1 HB5      -0.052400
     11 S36          1.8920     2.0260     0.9320 ss         1 HB5      -0.133800
     12 C35          1.4490     3.6830     0.9580 cc         1 HB5      -0.102100
     13 C34          2.1550     4.3960     0.0400 cd         1 HB5      -0.150000
     14 C33          3.0720     3.5910    -0.6930 cd         1 HB5      -0.128000
     15 N8           6.0340     1.8900     0.0250 n8         1 HB5      -0.865800
     16 C11          2.5730    -3.0080    -0.3330 ca         1 HB5      -0.051300
     17 C16          1.9130    -2.2790    -1.3160 ca         1 HB5      -0.126500
     18 C15          0.7560    -1.5730    -1.0220 ca         1 HB5      -0.110000
     19 C14          0.2220    -1.5760     0.2660 cp         1 HB5      -0.043000
     20 C13          0.8720    -2.3280     1.2460 ca         1 HB5      -0.110000
     21 C12          2.0260    -3.0320     0.9500 ca         1 HB5      -0.126500
     22 C17         -0.9920    -0.8030     0.5850 cp         1 HB5       0.019000
     23 C22         -1.2290     0.4340    -0.0180 ca         1 HB5      -0.138500
     24 C21         -2.3570     1.1740     0.2880 ca         1 HB5      -0.034500
     25 C20         -3.2700     0.6730     1.2080 ca         1 HB5      -0.305500
     26 C19         -3.0590    -0.5550     1.8210 ca         1 HB5      -0.034500
     27 C18         -1.9250    -1.2840     1.5060 ca         1 HB5      -0.138500
     28 S23         -4.7490     1.5790     1.5580 sy         1 HB5       1.292200
     29 O31         -5.2300     1.1710     2.8670 o          1 HB5      -0.605300
     30 O32         -4.4940     2.9860     1.2960 o          1 HB5      -0.605300
     31 N24         -5.8720     1.0790     0.4510 n3         1 HB5      -0.710500
     32 C29         -5.6410     1.4660    -0.9420 c6         1 HB5       0.188300
     33 C28         -6.9230     1.2670    -1.7260 c6         1 HB5       0.164800
     34 N27         -7.3740    -0.1050    -1.6350 n3         1 HB5      -0.718600
     35 C30         -8.5440    -0.3420    -2.4510 c3         1 HB5       0.153100
     36 C26         -7.6060    -0.4660    -0.2530 c6         1 HB5       0.164800
     37 C25         -6.3410    -0.3040     0.5690 c6         1 HB5       0.188300
     38 H1           4.7140     0.7210     1.0930 h1         1 HB5       0.070700
     39 H3           4.4970    -2.4820    -2.3280 hc         1 HB5       0.088700
     40 H4           3.8890    -4.7470    -0.2870 hc         1 HB5       0.095700
     41 H5           6.2620    -5.2540    -0.6160 hn         1 HB5       0.370400
     42 H6           6.6890    -3.1070     1.2580 h4         1 HB5       0.023800
     43 H7           4.2820    -1.4170     0.8720 hn         1 HB5       0.326500
     44 H8           4.2260     1.3890    -1.8410 hc         1 HB5       0.058700
     45 H9           3.2380     0.2550    -0.9440 hc         1 HB5       0.058700
     46 H10          0.6910     4.0370     1.6400 h4         1 HB5       0.172000
     47 H11          2.0270     5.4590    -0.1130 ha         1 HB5       0.154000
     48 H12          3.7230     3.9730    -1.4680 ha         1 HB5       0.154000
     49 H13          6.7780     1.7090     0.6860 hn         1 HB5       0.355300
     50 H14          6.4700     1.9280    -0.8890 hn         1 HB5       0.355300
     51 H16          2.2950    -2.2590    -2.3280 ha         1 HB5       0.137500
     52 H17          0.2610    -1.0280    -1.8150 ha         1 HB5       0.139000
     53 H18          0.4950    -2.3410     2.2610 ha         1 HB5       0.139000
     54 H19          2.5240    -3.5900     1.7340 ha         1 HB5       0.137500
     55 H20         -0.5100     0.8460    -0.7140 ha         1 HB5       0.140500
     56 H21         -2.5060     2.1380    -0.1780 ha         1 HB5       0.154000
     57 H22         -3.7630    -0.9510     2.5410 ha         1 HB5       0.154000
     58 H23         -1.7760    -2.2460     1.9770 ha         1 HB5       0.140500
     59 H24         -5.3520     2.5140    -0.9930 h1         1 HB5       0.060950
     60 H25         -4.8400     0.8640    -1.3870 h1         1 HB5       0.060950
     61 H26         -7.6850     1.9780    -1.3630 h1         1 HB5       0.044950
     62 H27         -6.7240     1.5130    -2.7720 h1         1 HB5       0.044950
     63 H29         -8.3290    -0.0980    -3.4920 h1         1 HB5       0.033700
     64 H30         -8.8230    -1.3950    -2.4030 h1         1 HB5       0.033700
     65 H31         -9.4170     0.2510    -2.1390 h1         1 HB5       0.033700
     66 H32         -8.4110     0.1360     0.2000 h1         1 HB5       0.044950
     67 H33         -7.9140    -1.5120    -0.2000 h1         1 HB5       0.044950
     68 H34         -5.5780    -1.0080     0.2140 h1         1 HB5       0.060950
     69 H35         -6.5640    -0.5330     1.6090 h1         1 HB5       0.060950
     70 H2           5.3670    -4.0640    -2.1660 hc         1 HB5       0.088700
     71 N38          6.7210    -4.8080     0.1780 n2         1 HB5      -0.732100
@<TRIPOS>BOND
     1     1     2 1   
     2     1     7 1   
     3     1     8 2   
     4     2     9 1   
     5     2    15 1   
     6     2    38 1   
     7     3     4 1   
     8     3     5 1   
     9     3    39 1   
    10     3    70 1   
    11     4     5 1   
    12     4    16 1   
    13     4    40 1   
    14     5     6 1   
    15     5     7 1   
    16     6    42 1   
    17     6    71 2   
    18     7    43 1   
    19     9    10 1   
    20     9    44 1   
    21     9    45 1   
    22    10    11 1   
    23    10    14 2   
    24    11    12 1   
    25    12    13 2   
    26    12    46 1   
    27    13    14 1   
    28    13    47 1   
    29    14    48 1   
    30    15    49 1   
    31    15    50 1   
    32    16    17 ar  
    33    16    21 ar  
    34    17    18 ar  
    35    17    51 1   
    36    18    19 ar  
    37    18    52 1   
    38    19    20 ar  
    39    19    22 1   
    40    20    21 ar  
    41    20    53 1   
    42    21    54 1   
    43    22    23 ar  
    44    22    27 ar  
    45    23    24 ar  
    46    23    55 1   
    47    24    25 ar  
    48    24    56 1   
    49    25    26 ar  
    50    25    28 1   
    51    26    27 ar  
    52    26    57 1   
    53    27    58 1   
    54    28    29 2   
    55    28    30 2   
    56    28    31 1   
    57    31    32 1   
    58    31    37 1   
    59    32    33 1   
    60    32    59 1   
    61    32    60 1   
    62    33    34 1   
    63    33    61 1   
    64    33    62 1   
    65    34    35 1   
    66    34    36 1   
    67    35    63 1   
    68    35    64 1   
    69    35    65 1   
    70    36    37 1   
    71    36    66 1   
    72    36    67 1   
    73    37    68 1   
    74    37    69 1   
    75    41    71 1   
@<TRIPOS>SUBSTRUCTURE
     1 HB5         1 TEMP              0 ****  ****    0 ROOT
