@<TRIPOS>MOLECULE
HB5
   71    75     1     0     0
SMALL
No Charge or Current Charge


@<TRIPOS>ATOM
      1 C5           5.7250    -0.6050    -0.3580 c          1 HB5       0.557100
      2 C6           5.1900     0.7680     0.1790 c3         1 HB5       0.093500
      3 C3           4.7620    -3.2850    -1.8490 cx         1 HB5      -0.088400
      4 C2           3.8140    -3.7030    -0.7450 cx         1 HB5      -0.075400
      5 C1           5.1460    -3.0530    -0.4020 cx         1 HB5      -0.054900
      6 C37          6.2760    -3.8330     0.2280 c2         1 HB5       0.452200
      7 N4           5.0310    -1.7020     0.1090 ns         1 HB5      -0.479900
      8 O7           6.6860    -0.7070    -1.1120 o          1 HB5      -0.591100
      9 C9           4.0460     1.2700    -0.7450 c3         1 HB5       0.002900
     10 C10          3.0840     2.2200    -0.0770 cc         1 HB5      -0.197300
     11 S36          1.8750     1.6350     1.0680 ss         1 HB5       0.156000
     12 C35          1.2250     3.2580     1.2680 cc         1 HB5      -0.229000
     13 C34          1.9150     4.1600     0.4980 cd         1 HB5      -0.132000
     14 C33          2.9620     3.5740    -0.2620 cd         1 HB5      -0.110000
     15 N8           6.2350     1.8340     0.3840 n8         1 HB5      -0.976200
     16 C11          2.5270    -2.9700    -0.4670 ca         1 HB5      -0.051300
     17 C16          1.7950    -2.3610    -1.5030 ca         1 HB5      -0.108500
     18 C15          0.6460    -1.6050    -1.2130 ca         1 HB5      -0.092000
     19 C14          0.1910    -1.4440     0.1200 cp         1 HB5      -0.043000
     20 C13          0.9240    -2.0870     1.1480 ca         1 HB5      -0.092000
     21 C12          2.0750    -2.8400     0.8580 ca         1 HB5      -0.108500
     22 C17         -1.0090    -0.6050     0.4330 cp         1 HB5       0.019000
     23 C22         -1.2880     0.5740    -0.3030 ca         1 HB5      -0.120500
     24 C21         -2.4010     1.3750    -0.0020 ca         1 HB5      -0.016500
     25 C20         -3.2720     1.0100     1.0420 ca         1 HB5      -0.305500
     26 C19         -3.0100    -0.1560     1.7890 ca         1 HB5      -0.016500
     27 C18         -1.8920    -0.9510     1.4850 ca         1 HB5      -0.120500
     28 S23         -4.7060     2.0340     1.4290 sy         1 HB5       1.150600
     29 O31         -5.1270     1.7940     2.8150 o          1 HB5      -0.534500
     30 O32         -4.4840     3.4010     0.9430 o          1 HB5      -0.534500
     31 N24         -5.9320     1.3770     0.4440 n3         1 HB5      -0.710500
     32 C29         -5.7000     1.5170    -1.0240 c6         1 HB5       0.188300
     33 C28         -6.9240     1.0320    -1.8630 c6         1 HB5       0.164800
     34 N27         -7.3080    -0.3750    -1.5400 n3         1 HB5      -0.718600
     35 C30         -8.4510    -0.8560    -2.3450 c3         1 HB5       0.153100
     36 C26         -7.5340    -0.5180    -0.0700 c6         1 HB5       0.164800
     37 C25         -6.3090    -0.0310     0.7650 c6         1 HB5       0.188300
     38 H1           4.7490     0.5540     1.1630 h1         1 HB5       0.070700
     39 H3           4.5140    -2.4120    -2.4480 hc         1 HB5       0.088700
     40 H4           3.7140    -4.7720    -0.5720 hc         1 HB5       0.095700
     41 H5           5.7170    -5.4370    -0.6050 hn         1 HB5       0.370400
     42 H6           6.9590    -3.2860     0.8740 h4         1 HB5       0.023800
     43 H7           4.2660    -1.4990     0.7430 hn         1 HB5       0.326500
     44 H8           4.4740     1.7290    -1.6450 hc         1 HB5       0.058700
     45 H9           3.4720     0.4040    -1.1000 hc         1 HB5       0.058700
     46 H10          0.3870     3.4220     1.9330 h4         1 HB5       0.154000
     47 H11          1.6800     5.2210     0.4690 ha         1 HB5       0.136000
     48 H12          3.6020     4.1430    -0.9310 ha         1 HB5       0.136000
     49 H13          6.9580     1.4820     1.0240 hn         1 HB5       0.410500
     50 H14          6.7520     1.9600    -0.4950 hn         1 HB5       0.410500
     51 H16          2.1210    -2.4570    -2.5360 ha         1 HB5       0.119500
     52 H17          0.1020    -1.1420    -2.0320 ha         1 HB5       0.121000
     53 H18          0.6150    -1.9790     2.1850 ha         1 HB5       0.121000
     54 H19          2.6300    -3.3050     1.6700 ha         1 HB5       0.119500
     55 H20         -0.6210     0.8830    -1.1030 ha         1 HB5       0.122500
     56 H21         -2.5790     2.2790    -0.5840 ha         1 HB5       0.136000
     57 H22         -3.6700    -0.4530     2.6040 ha         1 HB5       0.136000
     58 H23         -1.7170    -1.8520     2.0660 ha         1 HB5       0.122500
     59 H24         -5.5010     2.5650    -1.2900 h1         1 HB5       0.060950
     60 H25         -4.8210     0.9340    -1.3320 h1         1 HB5       0.060950
     61 H26         -7.7690     1.7100    -1.6680 h1         1 HB5       0.044950
     62 H27         -6.6760     1.1250    -2.9300 h1         1 HB5       0.044950
     63 H29         -8.2280    -0.7830    -3.4180 h1         1 HB5       0.033700
     64 H30         -8.6700    -1.9080    -2.1170 h1         1 HB5       0.033700
     65 H31         -9.3530    -0.2640    -2.1400 h1         1 HB5       0.033700
     66 H32         -8.4170     0.0620     0.2370 h1         1 HB5       0.044950
     67 H33         -7.7360    -1.5690     0.1840 h1         1 HB5       0.044950
     68 H34         -5.4670    -0.7100     0.5670 h1         1 HB5       0.060950
     69 H35         -6.5620    -0.1340     1.8310 h1         1 HB5       0.060950
     70 H2           5.2740    -4.0700    -2.4000 hc         1 HB5       0.088700
     71 N38          6.4500    -5.0950     0.0290 n2         1 HB5      -0.732100
@<TRIPOS>BOND
     1     1     2 1   
     2     1     7 1   
     3     1     8 2   
     4     2     9 1   
     5     2    15 1   
     6     2    38 1   
     7     3     4 1   
     8     3     5 1   
     9     3    39 1   
    10     3    70 1   
    11     4     5 1   
    12     4    16 1   
    13     4    40 1   
    14     5     6 1   
    15     5     7 1   
    16     6    42 1   
    17     6    71 2   
    18     7    43 1   
    19     9    10 1   
    20     9    44 1   
    21     9    45 1   
    22    10    11 1   
    23    10    14 2   
    24    11    12 1   
    25    12    13 2   
    26    12    46 1   
    27    13    14 1   
    28    13    47 1   
    29    14    48 1   
    30    15    49 1   
    31    15    50 1   
    32    16    17 ar  
    33    16    21 ar  
    34    17    18 ar  
    35    17    51 1   
    36    18    19 ar  
    37    18    52 1   
    38    19    20 ar  
    39    19    22 1   
    40    20    21 ar  
    41    20    53 1   
    42    21    54 1   
    43    22    23 ar  
    44    22    27 ar  
    45    23    24 ar  
    46    23    55 1   
    47    24    25 ar  
    48    24    56 1   
    49    25    26 ar  
    50    25    28 1   
    51    26    27 ar  
    52    26    57 1   
    53    27    58 1   
    54    28    29 2   
    55    28    30 2   
    56    28    31 1   
    57    31    32 1   
    58    31    37 1   
    59    32    33 1   
    60    32    59 1   
    61    32    60 1   
    62    33    34 1   
    63    33    61 1   
    64    33    62 1   
    65    34    35 1   
    66    34    36 1   
    67    35    63 1   
    68    35    64 1   
    69    35    65 1   
    70    36    37 1   
    71    36    66 1   
    72    36    67 1   
    73    37    68 1   
    74    37    69 1   
    75    41    71 1   
@<TRIPOS>SUBSTRUCTURE
     1 HB5         1 TEMP              0 ****  ****    0 ROOT
