@<TRIPOS>MOLECULE
HB6
   90    93     1     0     0
SMALL
abcg2


@<TRIPOS>ATOM
      1 C10         11.2330   -30.7500     8.1790 ca         1 HB6      -0.061000
      2 N12         10.3930   -25.9570     8.6350 nh         1 HB6      -0.790300
      3 C17          9.6960   -24.6720    10.9820 ca         1 HB6      -0.334500
      4 C20          7.5610   -23.9480    12.6020 ca         1 HB6       0.199100
      5 C21          8.0340   -23.0640    11.6320 ca         1 HB6      -0.205500
      6 C22          9.0950   -23.4340    10.8210 ca         1 HB6       0.040500
      7 C24          5.8580   -22.4540    13.3100 c3         1 HB6       0.141900
      8 C28          8.7960   -29.8560    12.6900 ca         1 HB6       0.017000
      9 C01          8.3180   -28.8880     9.5660 ca         1 HB6      -0.130000
     10 C02          8.7250   -27.5610     9.3490 ca         1 HB6      -0.105000
     11 C03          9.9630   -27.2960     8.8310 ca         1 HB6       0.275000
     12 C04         10.8320   -28.3550     8.4490 ca         1 HB6      -0.018000
     13 C05         10.3990   -29.6970     8.6190 ca         1 HB6      -0.014000
     14 C06          9.1340   -29.9330     9.2220 ca         1 HB6       0.267000
     15 C07         12.1070   -28.1130     7.8880 ca         1 HB6      -0.101000
     16 C08         12.8970   -29.1530     7.4820 ca         1 HB6      -0.090000
     17 C09         12.4500   -30.4820     7.6170 ca         1 HB6      -0.104000
     18 C18          9.2410   -25.5530    11.9610 ca         1 HB6       0.040500
     19 C19          8.1770   -25.1940    12.7590 ca         1 HB6      -0.205500
     20 C27          8.2170   -30.9880    12.1260 ca         1 HB6      -0.344500
     21 C29          8.0600   -29.0850    13.5640 ca         1 HB6      -0.180500
     22 C30          6.7380   -29.4180    13.8840 ca         1 HB6       0.043000
     23 C31          6.1770   -30.5730    13.3310 ca         1 HB6      -0.180500
     24 C32          6.9190   -31.3480    12.4560 ca         1 HB6       0.017000
     25 C34         10.1890   -25.3200     7.3560 c3         1 HB6       0.146800
     26 C35          8.8140   -24.6820     7.1880 c          1 HB6       0.586100
     27 C38          7.5200   -31.7730     8.8040 c3         1 HB6       0.130800
     28 C39          7.7590   -33.1290     8.1490 c          1 HB6       0.614100
     29 C42          4.7750   -28.6210    15.1680 c          1 HB6       0.650100
     30 C43          4.2790   -27.3580    15.8400 c3         1 HB6      -0.546400
     31 C49          3.9460   -25.9690    12.0760 c3         1 HB6       0.226100
     32 C50          4.9250   -26.5510    11.0850 c3         1 HB6      -0.117600
     33 C51          1.2720   -27.8370    14.5730 c3         1 HB6       0.226100
     34 C52          1.2820   -28.4000    13.1700 c3         1 HB6      -0.117600
     35 N11          8.7170   -31.2730     9.4520 nh         1 HB6      -0.750300
     36 N33          6.0610   -28.5450    14.7280 ns         1 HB6      -0.133000
     37 N36          8.6060   -24.1790     5.9630 nt         1 HB6      -0.609000
     38 N40          6.6470   -33.8610     8.0040 nt         1 HB6      -0.607000
     39 O15         11.6400   -23.9410     9.3890 o          1 HB6      -0.538500
     40 O16         11.8370   -26.0970    10.6730 o          1 HB6      -0.538500
     41 O23          6.5380   -23.6920    13.4210 os         1 HB6      -0.334100
     42 O25          8.5820   -33.2790    10.9200 o          1 HB6      -0.524500
     43 O26         10.5240   -31.6870    11.1470 o          1 HB6      -0.524500
     44 O37          7.9980   -24.6360     8.0910 o          1 HB6      -0.609100
     45 O41          8.8550   -33.4700     7.7440 o          1 HB6      -0.580100
     46 O44          4.0670   -29.5960    15.0250 o          1 HB6      -0.582100
     47 O46          4.0820   -26.6920    13.3100 os         1 HB6      -0.625400
     48 O47          3.6220   -24.7720    15.0220 o          1 HB6      -0.549000
     49 O48          1.8840   -26.5410    14.6650 os         1 HB6      -0.625400
     50 P45          3.4450   -26.2040    14.6950 p5         1 HB6       1.381800
     51 S13          9.1110   -31.9270    10.9330 sy         1 HB6       1.179600
     52 S14         11.0300   -25.1430     9.9310 sy         1 HB6       1.199600
     53 H101        10.8840   -31.7680     8.2680 ha         1 HB6       0.148000
     54 H211         7.5900   -22.0890    11.4910 ha         1 HB6       0.120000
     55 H221         9.4460   -22.7390    10.0720 ha         1 HB6       0.133500
     56 H242         5.0630   -22.4800    14.0490 h1         1 HB6       0.052367
     57 H243         6.5180   -21.6090    13.5210 h1         1 HB6       0.052367
     58 H241         5.4160   -22.3220    12.3190 h1         1 HB6       0.052367
     59 H281         9.8110   -29.5680    12.4570 ha         1 HB6       0.139000
     60 H011         7.3480   -29.0790    10.0080 ha         1 HB6       0.119000
     61 H021         8.0600   -26.7480     9.6000 ha         1 HB6       0.143000
     62 H071        12.4550   -27.0960     7.7750 ha         1 HB6       0.115000
     63 H081        13.8690   -28.9550     7.0490 ha         1 HB6       0.115000
     64 H091        13.0760   -31.2950     7.2720 ha         1 HB6       0.121000
     65 H181         9.7060   -26.5190    12.1070 ha         1 HB6       0.133500
     66 H191         7.8070   -25.8730    13.5170 ha         1 HB6       0.120000
     67 H291         8.5180   -28.2070    14.0030 ha         1 HB6       0.134000
     68 H311         5.1730   -30.8770    13.5700 ha         1 HB6       0.134000
     69 H321         6.4660   -32.2380    12.0410 ha         1 HB6       0.139000
     70 H342        10.3350   -26.0730     6.5770 h1         1 HB6       0.083200
     71 H341        10.9590   -24.5680     7.1820 h1         1 HB6       0.083200
     72 H382         7.2690   -31.0720     8.0050 h1         1 HB6       0.061200
     73 H381         6.6490   -31.7940     9.4660 h1         1 HB6       0.061200
     74 H432         3.5870   -27.6210    16.6430 hc         1 HB6       0.109700
     75 H431         5.0940   -26.7900    16.2940 hc         1 HB6       0.109700
     76 H492         4.1500   -24.9100    12.2440 h1         1 HB6       0.047700
     77 H491         2.9210   -26.0630    11.7130 h1         1 HB6       0.047700
     78 H501         4.8530   -26.0110    10.1420 hc         1 HB6       0.050033
     79 H503         5.9510   -26.4620    11.4450 hc         1 HB6       0.050033
     80 H502         4.7160   -27.6030    10.8880 hc         1 HB6       0.050033
     81 H511         0.2470   -27.6830    14.9100 h1         1 HB6       0.047700
     82 H512         1.7440   -28.5280    15.2730 h1         1 HB6       0.047700
     83 H523         0.6870   -29.3130    13.1540 hc         1 HB6       0.050033
     84 H521         0.8410   -27.7020    12.4590 hc         1 HB6       0.050033
     85 H522         2.2860   -28.6550    12.8350 hc         1 HB6       0.050033
     86 H331         6.5660   -27.7010    14.9550 hn         1 HB6       0.159000
     87 H361         7.7380   -23.7200     5.7400 hn         1 HB6       0.317000
     88 H362         9.3000   -24.2360     5.2370 hn         1 HB6       0.317000
     89 H401         6.6760   -34.7420     7.5190 hn         1 HB6       0.314500
     90 H402         5.7600   -33.5670     8.3780 hn         1 HB6       0.314500
@<TRIPOS>BOND
     1     1    13 ar  
     2     1    17 ar  
     3     1    53 1   
     4     2    11 1   
     5     2    25 1   
     6     2    52 1   
     7     3     6 ar  
     8     3    18 ar  
     9     3    52 1   
    10     4     5 ar  
    11     4    19 ar  
    12     4    41 1   
    13     5     6 ar  
    14     5    54 1   
    15     6    55 1   
    16     7    41 1   
    17     7    56 1   
    18     7    57 1   
    19     7    58 1   
    20     8    20 ar  
    21     8    21 ar  
    22     8    59 1   
    23     9    10 ar  
    24     9    14 ar  
    25     9    60 1   
    26    10    11 ar  
    27    10    61 1   
    28    11    12 ar  
    29    12    13 ar  
    30    12    15 ar  
    31    13    14 ar  
    32    14    35 1   
    33    15    16 ar  
    34    15    62 1   
    35    16    17 ar  
    36    16    63 1   
    37    17    64 1   
    38    18    19 ar  
    39    18    65 1   
    40    19    66 1   
    41    20    24 ar  
    42    20    51 1   
    43    21    22 ar  
    44    21    67 1   
    45    22    23 ar  
    46    22    36 1   
    47    23    24 ar  
    48    23    68 1   
    49    24    69 1   
    50    25    26 1   
    51    25    70 1   
    52    25    71 1   
    53    26    37 1   
    54    26    44 2   
    55    27    28 1   
    56    27    35 1   
    57    27    72 1   
    58    27    73 1   
    59    28    38 1   
    60    28    45 2   
    61    29    30 1   
    62    29    36 1   
    63    29    46 2   
    64    30    50 1   
    65    30    74 1   
    66    30    75 1   
    67    31    32 1   
    68    31    47 1   
    69    31    76 1   
    70    31    77 1   
    71    32    78 1   
    72    32    79 1   
    73    32    80 1   
    74    33    34 1   
    75    33    49 1   
    76    33    81 1   
    77    33    82 1   
    78    34    83 1   
    79    34    84 1   
    80    34    85 1   
    81    35    51 1   
    82    36    86 1   
    83    37    87 1   
    84    37    88 1   
    85    38    89 1   
    86    38    90 1   
    87    39    52 2   
    88    40    52 2   
    89    42    51 2   
    90    43    51 2   
    91    47    50 1   
    92    48    50 2   
    93    49    50 1   
@<TRIPOS>SUBSTRUCTURE
     1 HB6         1 TEMP              0 ****  ****    0 ROOT
