@<TRIPOS>MOLECULE
HB6
   90    93     1     0     0
SMALL
No Charge or Current Charge


@<TRIPOS>ATOM
      1 C10         11.2380   -30.6160     8.3160 ca         1 HB6      -0.061000
      2 N12          9.7960   -25.9050     8.0900 nh         1 HB6      -0.790300
      3 C17          9.9040   -24.9020    10.5790 ca         1 HB6      -0.334500
      4 C20          8.6120   -24.9640    13.0780 ca         1 HB6       0.199100
      5 C21          8.1420   -24.1090    12.0600 ca         1 HB6      -0.205500
      6 C22          8.7860   -24.0790    10.8120 ca         1 HB6       0.040500
      7 C24          6.9520   -24.1510    14.7100 c3         1 HB6       0.141900
      8 C28          8.6180   -29.4230    12.9950 ca         1 HB6       0.017000
      9 C01          8.2950   -28.8400     9.7780 ca         1 HB6      -0.130000
     10 C02          8.5270   -27.5330     9.3270 ca         1 HB6      -0.105000
     11 C03          9.6570   -27.2270     8.5540 ca         1 HB6       0.275000
     12 C04         10.5590   -28.2670     8.2020 ca         1 HB6      -0.018000
     13 C05         10.3340   -29.5880     8.6750 ca         1 HB6      -0.014000
     14 C06          9.1990   -29.8720     9.4790 ca         1 HB6       0.267000
     15 C07         11.6770   -28.0160     7.3690 ca         1 HB6      -0.101000
     16 C08         12.5640   -29.0470     7.0240 ca         1 HB6      -0.090000
     17 C09         12.3470   -30.3450     7.5000 ca         1 HB6      -0.104000
     18 C18         10.3680   -25.7650    11.5890 ca         1 HB6       0.040500
     19 C19          9.7190   -25.7890    12.8340 ca         1 HB6      -0.205500
     20 C27          8.2490   -30.6710    12.4610 ca         1 HB6      -0.344500
     21 C29          7.6810   -28.6760    13.7290 ca         1 HB6      -0.180500
     22 C30          6.3730   -29.1500    13.9290 ca         1 HB6       0.043000
     23 C31          6.0190   -30.4120    13.4070 ca         1 HB6      -0.180500
     24 C32          6.9520   -31.1700    12.6810 ca         1 HB6       0.017000
     25 C34          9.3680   -25.5230     6.7100 c3         1 HB6       0.146800
     26 C35          8.0100   -24.7730     6.5880 c          1 HB6       0.586100
     27 C38          7.8430   -31.9830     9.2420 c3         1 HB6       0.130800
     28 C39          8.2210   -33.4180     8.7550 c          1 HB6       0.614100
     29 C42          4.0980   -28.3720    14.8190 c          1 HB6       0.650100
     30 C43          3.5020   -27.2000    15.5440 c3         1 HB6      -0.546400
     31 C49          4.1750   -25.4910    11.9250 c3         1 HB6       0.226100
     32 C50          5.2860   -26.1080    11.0630 c3         1 HB6      -0.117600
     33 C51          0.9180   -27.3230    13.6440 c3         1 HB6       0.226100
     34 C52          1.3040   -27.8620    12.2520 c3         1 HB6      -0.117600
     35 N11          8.9100   -31.1810     9.9100 nh         1 HB6      -0.750300
     36 N33          5.4720   -28.3100    14.6340 ns         1 HB6      -0.133000
     37 N36          7.9900   -23.4870     7.0090 nt         1 HB6      -0.609000
     38 N40          7.2890   -34.3850     8.9450 nt         1 HB6      -0.607000
     39 O15         10.5630   -23.4960     8.4190 o          1 HB6      -0.538500
     40 O16         12.0830   -25.4290     9.1350 o          1 HB6      -0.538500
     41 O23          8.0280   -25.0240    14.3260 os         1 HB6      -0.334100
     42 O25          9.1230   -33.0490    11.6430 o          1 HB6      -0.524500
     43 O26         10.7670   -31.0830    11.6690 o          1 HB6      -0.524500
     44 O37          6.9920   -25.2800     6.1390 o          1 HB6      -0.609100
     45 O41          9.2810   -33.7010     8.2150 o          1 HB6      -0.580100
     46 O44          3.3870   -29.2920    14.4430 o          1 HB6      -0.582100
     47 O46          3.9590   -26.3930    13.0100 os         1 HB6      -0.625400
     48 O47          3.5370   -24.5650    14.8210 o          1 HB6      -0.549000
     49 O48          1.6090   -26.0860    13.8960 os         1 HB6      -0.625400
     50 P45          3.1630   -25.9170    14.3250 p5         1 HB6       1.381800
     51 S13          9.4160   -31.6220    11.4790 sy         1 HB6       1.179600
     52 S14         10.7530   -24.8290     9.0010 sy         1 HB6       1.199600
     53 H101        11.0870   -31.6340     8.6640 ha         1 HB6       0.148000
     54 H211         7.2860   -23.4600    12.2150 ha         1 HB6       0.120000
     55 H221         8.4170   -23.4120    10.0350 ha         1 HB6       0.133500
     56 H242         6.6330   -24.3670    15.7370 h1         1 HB6       0.052367
     57 H243         7.2680   -23.1010    14.6650 h1         1 HB6       0.052367
     58 H241         6.0880   -24.2860    14.0490 h1         1 HB6       0.052367
     59 H281         9.6170   -29.0210    12.8350 ha         1 HB6       0.139000
     60 H011         7.4020   -29.0540    10.3590 ha         1 HB6       0.119000
     61 H021         7.8190   -26.7460     9.5670 ha         1 HB6       0.143000
     62 H071        11.8680   -27.0210     6.9790 ha         1 HB6       0.115000
     63 H081        13.4200   -28.8370     6.3860 ha         1 HB6       0.115000
     64 H091        13.0330   -31.1460     7.2320 ha         1 HB6       0.121000
     65 H181        11.2290   -26.4100    11.4210 ha         1 HB6       0.133500
     66 H191        10.0850   -26.4450    13.6190 ha         1 HB6       0.120000
     67 H291         7.9720   -27.7100    14.1310 ha         1 HB6       0.134000
     68 H311         5.0270   -30.8250    13.5500 ha         1 HB6       0.134000
     69 H321         6.6560   -32.1400    12.2840 ha         1 HB6       0.139000
     70 H342         9.2820   -26.4250     6.0900 h1         1 HB6       0.083200
     71 H341        10.1310   -24.8960     6.2310 h1         1 HB6       0.083200
     72 H382         7.4830   -31.4480     8.3540 h1         1 HB6       0.061200
     73 H381         6.9810   -32.0740     9.9140 h1         1 HB6       0.061200
     74 H432         2.5730   -27.4480    16.0620 hc         1 HB6       0.109700
     75 H431         4.2350   -26.7140    16.1930 hc         1 HB6       0.109700
     76 H492         4.4960   -24.5020    12.2790 h1         1 HB6       0.047700
     77 H491         3.2630   -25.3710    11.3260 h1         1 HB6       0.047700
     78 H501         5.5340   -25.4440    10.2280 hc         1 HB6       0.050033
     79 H503         6.1910   -26.2700    11.6590 hc         1 HB6       0.050033
     80 H502         4.9630   -27.0730    10.6550 hc         1 HB6       0.050033
     81 H511        -0.1650   -27.1440    13.6570 h1         1 HB6       0.047700
     82 H512         1.1260   -28.0770    14.4120 h1         1 HB6       0.047700
     83 H523         0.6610   -28.7100    11.9900 hc         1 HB6       0.050033
     84 H521         1.1720   -27.0870    11.4880 hc         1 HB6       0.050033
     85 H522         2.3410   -28.2120    12.2220 hc         1 HB6       0.050033
     86 H331         5.9050   -27.4830    15.0210 hn         1 HB6       0.159000
     87 H361         7.1330   -22.9570     6.9540 hn         1 HB6       0.317000
     88 H362         8.8280   -23.0830     7.4080 hn         1 HB6       0.317000
     89 H401         7.4930   -35.3270     8.6480 hn         1 HB6       0.314500
     90 H402         6.4110   -34.1670     9.3910 hn         1 HB6       0.314500
@<TRIPOS>BOND
     1     1    13 ar  
     2     1    17 ar  
     3     1    53 1   
     4     2    11 1   
     5     2    25 1   
     6     2    52 1   
     7     3     6 ar  
     8     3    18 ar  
     9     3    52 1   
    10     4     5 ar  
    11     4    19 ar  
    12     4    41 1   
    13     5     6 ar  
    14     5    54 1   
    15     6    55 1   
    16     7    41 1   
    17     7    56 1   
    18     7    57 1   
    19     7    58 1   
    20     8    20 ar  
    21     8    21 ar  
    22     8    59 1   
    23     9    10 ar  
    24     9    14 ar  
    25     9    60 1   
    26    10    11 ar  
    27    10    61 1   
    28    11    12 ar  
    29    12    13 ar  
    30    12    15 ar  
    31    13    14 ar  
    32    14    35 1   
    33    15    16 ar  
    34    15    62 1   
    35    16    17 ar  
    36    16    63 1   
    37    17    64 1   
    38    18    19 ar  
    39    18    65 1   
    40    19    66 1   
    41    20    24 ar  
    42    20    51 1   
    43    21    22 ar  
    44    21    67 1   
    45    22    23 ar  
    46    22    36 1   
    47    23    24 ar  
    48    23    68 1   
    49    24    69 1   
    50    25    26 1   
    51    25    70 1   
    52    25    71 1   
    53    26    37 1   
    54    26    44 2   
    55    27    28 1   
    56    27    35 1   
    57    27    72 1   
    58    27    73 1   
    59    28    38 1   
    60    28    45 2   
    61    29    30 1   
    62    29    36 1   
    63    29    46 2   
    64    30    50 1   
    65    30    74 1   
    66    30    75 1   
    67    31    32 1   
    68    31    47 1   
    69    31    76 1   
    70    31    77 1   
    71    32    78 1   
    72    32    79 1   
    73    32    80 1   
    74    33    34 1   
    75    33    49 1   
    76    33    81 1   
    77    33    82 1   
    78    34    83 1   
    79    34    84 1   
    80    34    85 1   
    81    35    51 1   
    82    36    86 1   
    83    37    87 1   
    84    37    88 1   
    85    38    89 1   
    86    38    90 1   
    87    39    52 2   
    88    40    52 2   
    89    42    51 2   
    90    43    51 2   
    91    47    50 1   
    92    48    50 2   
    93    49    50 1   
@<TRIPOS>SUBSTRUCTURE
     1 HB6         1 TEMP              0 ****  ****    0 ROOT
