@<TRIPOS>MOLECULE
HB7
   62    64     1     0     0
SMALL
No Charge or Current Charge


@<TRIPOS>ATOM
      1 C13         -2.9150     2.1530     0.7920 ca         1 HB7      -0.024500
      2 C15         -5.2830     2.7670     0.7740 ca         1 HB7       0.359000
      3 C17         -7.0000     1.5640     2.1900 c3         1 HB7       0.218100
      4 C18         -7.5520     3.8140     1.1770 c3         1 HB7       0.218100
      5 C14         -4.1940     2.1060     1.3710 ca         1 HB7      -0.209000
      6 C12         -2.7010     2.8530    -0.4130 ca         1 HB7      -0.220600
      7 C11         -1.3360     2.9370    -1.0590 c          1 HB7       0.638700
      8 C05          3.7850    -1.2520    -0.9180 ca         1 HB7      -0.151600
      9 C06          3.0530    -1.1190    -2.1230 ca         1 HB7      -0.073000
     10 C07          2.1290    -0.0720    -2.2880 ca         1 HB7      -0.098000
     11 C08          1.9070     0.8570    -1.2560 ca         1 HB7      -0.083300
     12 C09          0.9400     2.0220    -1.4580 c3         1 HB7       0.132300
     13 C19         -5.0600     3.4890    -0.4130 ca         1 HB7      -0.209000
     14 C20         -3.7830     3.5400    -0.9970 ca         1 HB7      -0.024500
     15 C22         -0.9970     0.4350    -1.0210 c3         1 HB7       0.027000
     16 C23         -0.6970    -0.4730     0.1970 c          1 HB7       0.579100
     17 C25         -0.9160    -2.8300     1.0400 c3         1 HB7       0.152300
     18 C26          0.4540    -3.4850     0.9510 ca         1 HB7      -0.117300
     19 C27          1.4980    -3.0670     1.7990 ca         1 HB7      -0.098000
     20 C28          2.7590    -3.6840     1.7290 ca         1 HB7      -0.112000
     21 C29          2.9840    -4.7200     0.8070 ca         1 HB7      -0.099000
     22 C30          1.9500    -5.1330    -0.0500 ca         1 HB7      -0.112000
     23 C31          0.6880    -4.5180     0.0220 ca         1 HB7      -0.098000
     24 C33          2.6210     0.7250    -0.0520 ca         1 HB7      -0.098000
     25 C34          3.5490    -0.3180     0.1160 ca         1 HB7      -0.073000
     26 N03          4.9260    -3.2960    -1.7280 ns         1 HB7      -0.376400
     27 N10         -0.4540     1.8310    -0.9700 n          1 HB7      -0.398800
     28 N16         -6.5720     2.7170     1.3620 nh         1 HB7      -0.826400
     29 N24         -1.0820    -1.7850     0.0320 ns         1 HB7      -0.507900
     30 O01          5.5660    -2.3580     0.2560 o          1 HB7      -0.556100
     31 O04          5.7260    -4.4910    -1.5490 oh         1 HB7      -0.434100
     32 O21         -0.9790     3.9820    -1.5900 o          1 HB7      -0.599100
     33 O32         -0.1940    -0.0720     1.2390 o          1 HB7      -0.592100
     34 H1          -2.0880     1.6690     1.3040 ha         1 HB7       0.130000
     35 H2          -8.0940     1.4630     2.1840 h1         1 HB7       0.037367
     36 H3          -6.5800     0.6290     1.7970 h1         1 HB7       0.037367
     37 H4          -6.6680     1.6910     3.2290 h1         1 HB7       0.037367
     38 H5          -7.0420     4.7870     1.1530 h1         1 HB7       0.037367
     39 H6          -8.1060     3.6810     0.2380 h1         1 HB7       0.037367
     40 H7          -8.2720     3.8390     2.0060 h1         1 HB7       0.037367
     41 H8          -4.3250     1.5670     2.3040 ha         1 HB7       0.115000
     42 H9           3.2030    -1.8030    -2.9540 ha         1 HB7       0.123500
     43 H10          1.5920     0.0220    -3.2290 ha         1 HB7       0.121000
     44 H11          1.3600     2.9040    -0.9560 h1         1 HB7       0.066700
     45 H12          0.8990     2.2610    -2.5290 h1         1 HB7       0.066700
     46 H13         -5.8790     4.0100    -0.9000 ha         1 HB7       0.115000
     47 H14         -3.6400     4.1040    -1.9180 ha         1 HB7       0.130000
     48 H15         -0.5970    -0.0700    -1.9080 h1         1 HB7       0.065200
     49 H16         -2.0850     0.4540    -1.1520 h1         1 HB7       0.065200
     50 H17         -1.6950    -3.5890     0.8890 h1         1 HB7       0.057700
     51 H18         -1.0640    -2.4020     2.0410 h1         1 HB7       0.057700
     52 H19          1.3330    -2.2640     2.5140 ha         1 HB7       0.114500
     53 H20          3.5610    -3.3580     2.3860 ha         1 HB7       0.116500
     54 H21          3.9610    -5.1960     0.7510 ha         1 HB7       0.116000
     55 H22          2.1270    -5.9310    -0.7680 ha         1 HB7       0.116500
     56 H23         -0.1090    -4.8470    -0.6420 ha         1 HB7       0.114500
     57 H24          2.4610     1.4350     0.7560 ha         1 HB7       0.121000
     58 H25          4.0910    -0.3920     1.0560 ha         1 HB7       0.123500
     59 H26          4.1980    -3.3490    -2.4350 hn         1 HB7       0.328500
     60 H27         -1.4950    -2.0380    -0.8580 hn         1 HB7       0.318500
     61 H28          6.2790    -4.5240    -2.3650 ho         1 HB7       0.448000
     62 C02          4.8260    -2.3390    -0.7200 c          1 HB7       0.608700
@<TRIPOS>BOND
     1     1     5 ar  
     2     1     6 ar  
     3     1    34 1   
     4     2     5 ar  
     5     2    13 ar  
     6     2    28 1   
     7     3    28 1   
     8     3    35 1   
     9     3    36 1   
    10     3    37 1   
    11     4    28 1   
    12     4    38 1   
    13     4    39 1   
    14     4    40 1   
    15     5    41 1   
    16     6     7 1   
    17     6    14 ar  
    18     7    27 1   
    19     7    32 2   
    20     8     9 ar  
    21     8    25 ar  
    22     8    62 1   
    23     9    10 ar  
    24     9    42 1   
    25    10    11 ar  
    26    10    43 1   
    27    11    12 1   
    28    11    24 ar  
    29    12    27 1   
    30    12    44 1   
    31    12    45 1   
    32    13    14 ar  
    33    13    46 1   
    34    14    47 1   
    35    15    16 1   
    36    15    27 1   
    37    15    48 1   
    38    15    49 1   
    39    16    29 1   
    40    16    33 2   
    41    17    18 1   
    42    17    29 1   
    43    17    50 1   
    44    17    51 1   
    45    18    19 ar  
    46    18    23 ar  
    47    19    20 ar  
    48    19    52 1   
    49    20    21 ar  
    50    20    53 1   
    51    21    22 ar  
    52    21    54 1   
    53    22    23 ar  
    54    22    55 1   
    55    23    56 1   
    56    24    25 ar  
    57    24    57 1   
    58    25    58 1   
    59    26    31 1   
    60    26    59 1   
    61    26    62 1   
    62    29    60 1   
    63    30    62 2   
    64    31    61 1   
@<TRIPOS>SUBSTRUCTURE
     1 HB7         1 TEMP              0 ****  ****    0 ROOT
