@<TRIPOS>MOLECULE
HB7
   62    64     1     0     0
SMALL
abcg2


@<TRIPOS>ATOM
      1 C13         -2.7570     1.9170     0.7700 ca         1 HB7      -0.024500
      2 C15         -4.9800     2.8600     1.0620 ca         1 HB7       0.359000
      3 C17         -6.2160     2.4200     3.1080 c3         1 HB7       0.218100
      4 C18         -7.1450     3.9230     1.3510 c3         1 HB7       0.218100
      5 C14         -3.9000     2.0840     1.5290 ca         1 HB7      -0.209000
      6 C12         -2.6170     2.5220    -0.4780 ca         1 HB7      -0.220600
      7 C11         -1.3690     2.4800    -1.2860 c          1 HB7       0.638700
      8 C05          3.7760     0.1180     0.2490 ca         1 HB7      -0.151600
      9 C06          3.4020    -0.6920    -0.8170 ca         1 HB7      -0.073000
     10 C07          2.3470    -0.3190    -1.6400 ca         1 HB7      -0.098000
     11 C08          1.6510     0.8600    -1.4110 ca         1 HB7      -0.083300
     12 C09          0.4780     1.2430    -2.2770 c3         1 HB7       0.132300
     13 C19         -4.8220     3.4860    -0.1920 ca         1 HB7      -0.209000
     14 C20         -3.6630     3.3290    -0.9240 ca         1 HB7      -0.024500
     15 C22         -1.3560    -0.0100    -1.2720 c3         1 HB7       0.027000
     16 C23         -0.6000    -0.7890    -0.1970 c          1 HB7       0.579100
     17 C25          0.3890    -2.9410     0.3890 c3         1 HB7       0.152300
     18 C26          0.6660    -4.2530    -0.2900 ca         1 HB7      -0.117300
     19 C27          1.7170    -4.3690    -1.1960 ca         1 HB7      -0.098000
     20 C28          1.9590    -5.5680    -1.8510 ca         1 HB7      -0.112000
     21 C29          1.1480    -6.6690    -1.6070 ca         1 HB7      -0.099000
     22 C30          0.0970    -6.5630    -0.7060 ca         1 HB7      -0.112000
     23 C31         -0.1430    -5.3600    -0.0540 ca         1 HB7      -0.098000
     24 C33          2.0460     1.6800    -0.3570 ca         1 HB7      -0.098000
     25 C34          3.1030     1.3210     0.4570 ca         1 HB7      -0.073000
     26 N03          5.0810    -1.5580     1.3330 ns         1 HB7      -0.376400
     27 N10         -0.7720     1.2820    -1.5320 n          1 HB7      -0.398800
     28 N16         -6.1220     3.0030     1.7910 nh         1 HB7      -0.826400
     29 N24         -0.3450    -2.0660    -0.5050 ns         1 HB7      -0.507900
     30 O01          5.6040     0.6160     1.6880 o          1 HB7      -0.556100
     31 O04          5.9740    -1.9830     2.2710 oh         1 HB7      -0.434100
     32 O21         -0.9080     3.5250    -1.7300 o          1 HB7      -0.599100
     33 O32         -0.2760    -0.2830     0.8650 o          1 HB7      -0.592100
     34 H1          -1.9500     1.3220     1.1780 ha         1 HB7       0.130000
     35 H2          -7.2130     2.5900     3.5050 h1         1 HB7       0.037367
     36 H3          -6.0560     1.3390     3.0820 h1         1 HB7       0.037367
     37 H4          -5.4970     2.8490     3.8140 h1         1 HB7       0.037367
     38 H5          -6.7820     4.9540     1.2890 h1         1 HB7       0.037367
     39 H6          -7.5440     3.6490     0.3710 h1         1 HB7       0.037367
     40 H7          -7.9710     3.9060     2.0550 h1         1 HB7       0.037367
     41 H8          -3.9400     1.6100     2.4990 ha         1 HB7       0.115000
     42 H9           3.9430    -1.6040    -1.0410 ha         1 HB7       0.123500
     43 H10          2.0690    -0.9560    -2.4700 ha         1 HB7       0.121000
     44 H11          0.6470     2.2190    -2.7270 h1         1 HB7       0.066700
     45 H12          0.3750     0.5230    -3.0920 h1         1 HB7       0.066700
     46 H13         -5.6050     4.1090    -0.6010 ha         1 HB7       0.115000
     47 H14         -3.5810     3.8420    -1.8740 ha         1 HB7       0.130000
     48 H15         -1.3810    -0.5770    -2.2080 h1         1 HB7       0.065200
     49 H16         -2.3920     0.0960    -0.9520 h1         1 HB7       0.065200
     50 H17         -0.1780    -3.1030     1.3090 h1         1 HB7       0.057700
     51 H18          1.3250    -2.4530     0.6740 h1         1 HB7       0.057700
     52 H19          2.3570    -3.5160    -1.3910 ha         1 HB7       0.114500
     53 H20          2.7830    -5.6430    -2.5490 ha         1 HB7       0.116500
     54 H21          1.3350    -7.6050    -2.1160 ha         1 HB7       0.116000
     55 H22         -0.5380    -7.4170    -0.5100 ha         1 HB7       0.116500
     56 H23         -0.9640    -5.2850     0.6490 ha         1 HB7       0.114500
     57 H24          1.5260     2.6120    -0.1700 ha         1 HB7       0.121000
     58 H25          3.4010     1.9720     1.2680 ha         1 HB7       0.123500
     59 H26          4.3250    -2.2090     1.1690 hn         1 HB7       0.328500
     60 H27         -0.6210    -2.4240    -1.4050 hn         1 HB7       0.318500
     61 H28          6.7490    -2.2850     1.7800 ho         1 HB7       0.448000
     62 C02          4.9030    -0.2280     1.1630 c          1 HB7       0.608700
@<TRIPOS>BOND
     1     1     5 ar  
     2     1     6 ar  
     3     1    34 1   
     4     2     5 ar  
     5     2    13 ar  
     6     2    28 1   
     7     3    28 1   
     8     3    35 1   
     9     3    36 1   
    10     3    37 1   
    11     4    28 1   
    12     4    38 1   
    13     4    39 1   
    14     4    40 1   
    15     5    41 1   
    16     6     7 1   
    17     6    14 ar  
    18     7    27 1   
    19     7    32 2   
    20     8     9 ar  
    21     8    25 ar  
    22     8    62 1   
    23     9    10 ar  
    24     9    42 1   
    25    10    11 ar  
    26    10    43 1   
    27    11    12 1   
    28    11    24 ar  
    29    12    27 1   
    30    12    44 1   
    31    12    45 1   
    32    13    14 ar  
    33    13    46 1   
    34    14    47 1   
    35    15    16 1   
    36    15    27 1   
    37    15    48 1   
    38    15    49 1   
    39    16    29 1   
    40    16    33 2   
    41    17    18 1   
    42    17    29 1   
    43    17    50 1   
    44    17    51 1   
    45    18    19 ar  
    46    18    23 ar  
    47    19    20 ar  
    48    19    52 1   
    49    20    21 ar  
    50    20    53 1   
    51    21    22 ar  
    52    21    54 1   
    53    22    23 ar  
    54    22    55 1   
    55    23    56 1   
    56    24    25 ar  
    57    24    57 1   
    58    25    58 1   
    59    26    31 1   
    60    26    59 1   
    61    26    62 1   
    62    29    60 1   
    63    30    62 2   
    64    31    61 1   
@<TRIPOS>SUBSTRUCTURE
     1 HB7         1 TEMP              0 ****  ****    0 ROOT
