@<TRIPOS>MOLECULE
HB9
   62    66     1     0     0
SMALL
bcc


@<TRIPOS>ATOM
      1 CBB          8.5470     2.2100     1.1930 cc         1 HB9      -0.072000
      2 CBC          9.9250     2.4680     1.0040 cc         1 HB9      -0.162000
      3 CBD         10.4800     1.6600     0.0550 cd         1 HB9      -0.094100
      4 SBH          9.3370     0.5850    -0.6140 ss         1 HB9      -0.070800
      5 CAS          8.0810     1.2050     0.3910 cd         1 HB9      -0.159700
      6 CAR          6.6880     0.7240     0.3760 c          1 HB9       0.717700
      7 OBA          5.7940     1.3660     0.8950 o          1 HB9      -0.564100
      8 NAQ          6.4760    -0.4670    -0.2510 ns         1 HB9      -0.484100
      9 CAK          5.2070    -1.0620    -0.3270 ca         1 HB9       0.013600
     10 CAJ          4.1250    -0.4150    -0.9110 ca         1 HB9      -0.095000
     11 CAL          5.0030    -2.3300     0.2000 ca         1 HB9       0.130900
     12 FAP          6.0290    -2.9570     0.7810 f          1 HB9      -0.133900
     13 CAM          3.7800    -2.9670     0.1370 ca         1 HB9      -0.195000
     14 CAN          2.7360    -2.2980    -0.4640 ca         1 HB9       0.146900
     15 FAO          1.5490    -2.9020    -0.5520 f          1 HB9      -0.120900
     16 CAI          2.8750    -1.0140    -0.9840 ca         1 HB9       0.101600
     17 NAH          1.8020    -0.3760    -1.6150 nu         1 HB9      -0.664000
     18 CAW          0.6290    -0.0290    -1.0070 ca         1 HB9       0.231600
     19 CAX         -0.4110     0.5030    -1.7740 ca         1 HB9      -0.231000
     20 CAV          0.4300    -0.1550     0.3750 ca         1 HB9      -0.207000
     21 CAA         -0.7730     0.2210     0.9190 ca         1 HB9      -0.032000
     22 CBG         -1.8420     0.7170     0.1530 ca         1 HB9      -0.210600
     23 CBF         -3.0820     0.9880     0.9160 c          1 HB9       0.601300
     24 OBE         -3.0470     1.0460     2.1340 o          1 HB9      -0.529100
     25 CBI         -1.6330     0.8710    -1.2320 ca         1 HB9       0.021700
     26 CBJ         -2.6330     1.4360    -2.2060 c3         1 HB9      -0.036100
     27 CBK         -3.5890     2.4780    -1.6380 c3         1 HB9      -0.036100
     28 CBL         -4.6940     1.8160    -0.8780 ca         1 HB9      -0.024300
     29 CAT         -6.0060     1.9010    -1.3330 ca         1 HB9      -0.150000
     30 CAU         -7.0370     1.2440    -0.6840 ca         1 HB9      -0.086000
     31 CBM         -4.4320     1.0770     0.2750 ca         1 HB9      -0.159600
     32 CAZ         -5.4770     0.4450     0.9450 ca         1 HB9      -0.030000
     33 CAY         -6.7770     0.4920     0.4600 ca         1 HB9      -0.161600
     34 CAB         -7.8420    -0.2300     1.2230 c          1 HB9       0.680700
     35 OAD         -7.6930    -0.5050     2.4070 o          1 HB9      -0.602100
     36 NAC         -8.9480    -0.5460     0.5320 ns         1 HB9      -0.568900
     37 CAE        -10.0830    -1.2320     1.1080 c3         1 HB9       0.100000
     38 CAF        -11.3660    -0.7970     0.4350 c3         1 HB9       0.118400
     39 OAG        -11.2810    -1.1190    -0.9370 oh         1 HB9      -0.607800
     40 H1           7.9230     2.7380     1.9000 ha         1 HB9       0.174000
     41 H2          10.4810     3.2200     1.5440 ha         1 HB9       0.161000
     42 H3          11.5010     1.6490    -0.2940 h4         1 HB9       0.173000
     43 H6           7.2670    -1.0500    -0.4810 hn         1 HB9       0.331500
     44 H7           4.2570     0.5730    -1.3310 ha         1 HB9       0.160000
     45 H8           3.6470    -3.9630     0.5390 ha         1 HB9       0.174000
     46 H9           1.9480    -0.0630    -2.5620 hn         1 HB9       0.446800
     47 H10         -0.2550     0.6390    -2.8390 ha         1 HB9       0.126000
     48 H11          1.2150    -0.5200     1.0230 ha         1 HB9       0.144000
     49 H12         -0.9020     0.1160     1.9880 ha         1 HB9       0.153000
     50 H13         -2.0780     1.8800    -3.0330 hc         1 HB9       0.055200
     51 H14         -3.2140     0.6180    -2.6440 hc         1 HB9       0.055200
     52 H15         -3.0430     3.1860    -1.0070 hc         1 HB9       0.058200
     53 H16         -4.0130     3.0560    -2.4590 hc         1 HB9       0.058200
     54 H17         -6.2230     2.4920    -2.2140 ha         1 HB9       0.133000
     55 H18         -8.0430     1.3490    -1.0700 ha         1 HB9       0.131000
     56 H19         -5.2710    -0.1120     1.8490 ha         1 HB9       0.170000
     57 H20         -8.9540    -0.4360    -0.4690 hn         1 HB9       0.325500
     58 H21         -9.9650    -2.3170     1.0230 h1         1 HB9       0.062200
     59 H22        -10.1450    -0.9980     2.1690 h1         1 HB9       0.062200
     60 H23        -12.2030    -1.3100     0.9240 h1         1 HB9       0.030200
     61 H24        -11.5080     0.2790     0.5890 h1         1 HB9       0.030200
     62 H25        -12.0010    -0.6820    -1.3990 ho         1 HB9       0.407000
@<TRIPOS>BOND
     1     1     2 1   
     2     1     5 2   
     3     1    40 1   
     4     2     3 2   
     5     2    41 1   
     6     3     4 1   
     7     3    42 1   
     8     4     5 1   
     9     5     6 1   
    10     6     7 2   
    11     6     8 1   
    12     8     9 1   
    13     8    43 1   
    14     9    10 ar  
    15     9    11 ar  
    16    10    16 ar  
    17    10    44 1   
    18    11    12 1   
    19    11    13 ar  
    20    13    14 ar  
    21    13    45 1   
    22    14    15 1   
    23    14    16 ar  
    24    16    17 1   
    25    17    18 1   
    26    17    46 1   
    27    18    19 ar  
    28    18    20 ar  
    29    19    25 ar  
    30    19    47 1   
    31    20    21 ar  
    32    20    48 1   
    33    21    22 ar  
    34    21    49 1   
    35    22    23 1   
    36    22    25 ar  
    37    23    24 2   
    38    23    31 1   
    39    25    26 1   
    40    26    27 1   
    41    26    50 1   
    42    26    51 1   
    43    27    28 1   
    44    27    52 1   
    45    27    53 1   
    46    28    29 ar  
    47    28    31 ar  
    48    29    30 ar  
    49    29    54 1   
    50    30    33 ar  
    51    30    55 1   
    52    31    32 ar  
    53    32    33 ar  
    54    32    56 1   
    55    33    34 1   
    56    34    35 2   
    57    34    36 1   
    58    36    37 1   
    59    36    57 1   
    60    37    38 1   
    61    37    58 1   
    62    37    59 1   
    63    38    39 1   
    64    38    60 1   
    65    38    61 1   
    66    39    62 1   
@<TRIPOS>SUBSTRUCTURE
     1 HB9         1 TEMP              0 ****  ****    0 ROOT
