@<TRIPOS>MOLECULE
HB9
   62    66     1     0     0
SMALL
No Charge or Current Charge


@<TRIPOS>ATOM
      1 CBB          9.4930     2.0110    -0.8280 cc         1 HB9      -0.054000
      2 CBC         10.8800     1.7900    -0.6470 cc         1 HB9      -0.144000
      3 CBD         11.1820     0.5440    -0.1610 cd         1 HB9      -0.221000
      4 SBH          9.7170    -0.4210     0.0940 ss         1 HB9       0.219000
      5 CAS          8.7180     0.9310    -0.4810 cd         1 HB9      -0.304600
      6 CAR          7.2390     0.9120    -0.5790 c          1 HB9       0.650700
      7 OBA          6.5920     1.8700    -0.9830 o          1 HB9      -0.564100
      8 NAQ          6.6880    -0.2960    -0.1690 ns         1 HB9      -0.158000
      9 CAK          5.3430    -0.7660    -0.0830 ca         1 HB9      -0.079000
     10 CAJ          4.2170     0.0350    -0.3940 ca         1 HB9      -0.077000
     11 CAL          5.1350    -2.0950     0.3370 ca         1 HB9       0.166000
     12 FAP          6.1920    -2.8820     0.6400 f          1 HB9      -0.169000
     13 CAM          3.8420    -2.6250     0.4360 ca         1 HB9      -0.177000
     14 CAN          2.7330    -1.8260     0.1260 ca         1 HB9       0.182000
     15 FAO          1.5010    -2.3880     0.1860 f          1 HB9      -0.156000
     16 CAI          2.9080    -0.4740    -0.2820 ca         1 HB9       0.240000
     17 NAH          1.8350     0.3830    -0.6130 nu         1 HB9      -0.996000
     18 CAW          0.5390     0.5250    -0.1190 ca         1 HB9       0.370000
     19 CAX         -0.4230     1.1590    -0.9090 ca         1 HB9      -0.213000
     20 CAV          0.1970     0.1000     1.1650 ca         1 HB9      -0.189000
     21 CAA         -1.1110     0.2730     1.6380 ca         1 HB9      -0.014000
     22 CBG         -2.1090     0.8840     0.8420 ca         1 HB9      -0.210600
     23 CBF         -3.4950     0.9690     1.4650 c          1 HB9       0.601300
     24 OBE         -3.6100     1.0220     2.6850 o          1 HB9      -0.529100
     25 CBI         -1.7450     1.3540    -0.4560 ca         1 HB9       0.021700
     26 CBJ         -2.6640     2.0970    -1.4280 c3         1 HB9      -0.036100
     27 CBK         -3.8610     2.8260    -0.8100 c3         1 HB9      -0.036100
     28 CBL         -4.9410     1.8370    -0.4390 ca         1 HB9      -0.024300
     29 CAT         -6.1450     1.8020    -1.1650 ca         1 HB9      -0.132000
     30 CAU         -7.1610     0.8950    -0.8260 ca         1 HB9      -0.068000
     31 CBM         -4.7460     0.9480     0.6290 ca         1 HB9      -0.159600
     32 CAZ         -5.7770     0.0520     0.9820 ca         1 HB9      -0.012000
     33 CAY         -6.9900     0.0060     0.2600 ca         1 HB9      -0.161600
     34 CAB         -8.0600    -0.9830     0.6730 c          1 HB9       0.613700
     35 OAD         -7.9100    -1.7510     1.6130 o          1 HB9      -0.602100
     36 NAC         -9.2210    -0.9810    -0.0660 ns         1 HB9      -0.501900
     37 CAE        -10.3810    -1.8480     0.1770 c3         1 HB9       0.100000
     38 CAF        -11.7100    -1.1810    -0.2520 c3         1 HB9       0.141600
     39 OAG        -11.6260    -0.7050    -1.6070 oh         1 HB9      -0.670000
     40 H1           9.1010     2.9520    -1.2070 ha         1 HB9       0.156000
     41 H2          11.6220     2.5490    -0.8770 ha         1 HB9       0.143000
     42 H3          12.1570     0.1260     0.0640 h4         1 HB9       0.155000
     43 H6           7.3730    -0.9780     0.1260 hn         1 HB9       0.165000
     44 H7           4.3370     1.0640    -0.7110 ha         1 HB9       0.142000
     45 H8           3.7000    -3.6560     0.7440 ha         1 HB9       0.156000
     46 H9           2.0590     1.0700    -1.3360 hn         1 HB9       0.502000
     47 H10         -0.1400     1.5070    -1.8980 ha         1 HB9       0.108000
     48 H11          0.9420    -0.3600     1.8060 ha         1 HB9       0.126000
     49 H12         -1.3470    -0.0890     2.6380 ha         1 HB9       0.135000
     50 H13         -2.0760     2.8510    -1.9670 hc         1 HB9       0.055200
     51 H14         -3.0260     1.4030    -2.1960 hc         1 HB9       0.055200
     52 H15         -3.5380     3.4100     0.0610 hc         1 HB9       0.058200
     53 H16         -4.2440     3.5520    -1.5370 hc         1 HB9       0.058200
     54 H17         -6.2980     2.4820    -2.0000 ha         1 HB9       0.115000
     55 H18         -8.0740     0.9030    -1.4150 ha         1 HB9       0.113000
     56 H19         -5.6270    -0.6190     1.8270 ha         1 HB9       0.152000
     57 H20         -9.2830    -0.3240    -0.8330 hn         1 HB9       0.325500
     58 H21        -10.2460    -2.7820    -0.3830 h1         1 HB9       0.062200
     59 H22        -10.4400    -2.0980     1.2450 h1         1 HB9       0.062200
     60 H23        -12.5250    -1.9090    -0.1480 h1         1 HB9       0.030200
     61 H24        -11.9210    -0.3450     0.4280 h1         1 HB9       0.030200
     62 H25        -12.5020    -0.3170    -1.8300 ho         1 HB9       0.446000
@<TRIPOS>BOND
     1     1     2 1   
     2     1     5 2   
     3     1    40 1   
     4     2     3 2   
     5     2    41 1   
     6     3     4 1   
     7     3    42 1   
     8     4     5 1   
     9     5     6 1   
    10     6     7 2   
    11     6     8 1   
    12     8     9 1   
    13     8    43 1   
    14     9    10 ar  
    15     9    11 ar  
    16    10    16 ar  
    17    10    44 1   
    18    11    12 1   
    19    11    13 ar  
    20    13    14 ar  
    21    13    45 1   
    22    14    15 1   
    23    14    16 ar  
    24    16    17 1   
    25    17    18 1   
    26    17    46 1   
    27    18    19 ar  
    28    18    20 ar  
    29    19    25 ar  
    30    19    47 1   
    31    20    21 ar  
    32    20    48 1   
    33    21    22 ar  
    34    21    49 1   
    35    22    23 1   
    36    22    25 ar  
    37    23    24 2   
    38    23    31 1   
    39    25    26 1   
    40    26    27 1   
    41    26    50 1   
    42    26    51 1   
    43    27    28 1   
    44    27    52 1   
    45    27    53 1   
    46    28    29 ar  
    47    28    31 ar  
    48    29    30 ar  
    49    29    54 1   
    50    30    33 ar  
    51    30    55 1   
    52    31    32 ar  
    53    32    33 ar  
    54    32    56 1   
    55    33    34 1   
    56    34    35 2   
    57    34    36 1   
    58    36    37 1   
    59    36    57 1   
    60    37    38 1   
    61    37    58 1   
    62    37    59 1   
    63    38    39 1   
    64    38    60 1   
    65    38    61 1   
    66    39    62 1   
@<TRIPOS>SUBSTRUCTURE
     1 HB9         1 TEMP              0 ****  ****    0 ROOT
