@<TRIPOS>MOLECULE
HBA
   15    15     1     0     0
SMALL
bcc


@<TRIPOS>ATOM
      1 C1           0.4590    -0.0090    -2.4670 c          1 HBA       0.587500
      2 O1          -0.4490    -0.0890    -3.2660 o          1 HBA      -0.522100
      3 C7           0.2870     0.0280    -1.0130 ca         1 HBA      -0.229600
      4 C2           1.4160    -0.0010    -0.1940 ca         1 HBA      -0.046500
      5 C3           1.2940     0.0350     1.1820 ca         1 HBA      -0.195000
      6 C4           0.0260     0.0560     1.7600 ca         1 HBA       0.156100
      7 C5          -1.1110     0.0560     0.9490 ca         1 HBA      -0.195000
      8 C6          -0.9790     0.0420    -0.4250 ca         1 HBA      -0.046500
      9 O4          -0.0670     0.0540     3.1070 oh         1 HBA      -0.503100
     10 H1           1.5090    -0.0960    -2.8000 h4         1 HBA      -0.012800
     11 H2           2.3980     0.0100    -0.6510 ha         1 HBA       0.143000
     12 H3           2.1700     0.0220     1.8180 ha         1 HBA       0.145000
     13 H5          -2.1000     0.0420     1.3930 ha         1 HBA       0.145000
     14 H6          -1.8720     0.0520    -1.0360 ha         1 HBA       0.143000
     15 HO4         -0.7780     0.6410     3.3900 ho         1 HBA       0.430000
@<TRIPOS>BOND
     1     1     2 2   
     2     1     3 1   
     3     1    10 1   
     4     3     4 ar  
     5     3     8 ar  
     6     4     5 ar  
     7     4    11 1   
     8     5     6 ar  
     9     5    12 1   
    10     6     7 ar  
    11     6     9 1   
    12     7     8 ar  
    13     7    13 1   
    14     8    14 1   
    15     9    15 1   
@<TRIPOS>SUBSTRUCTURE
     1 HBA         1 TEMP              0 ****  ****    0 ROOT
