@<TRIPOS>MOLECULE
HBA
   15    15     1     0     0
SMALL
No Charge or Current Charge


@<TRIPOS>ATOM
      1 C1           0.4510    -0.0770    -2.5120 c          1 HBA       0.587500
      2 O1          -0.5030    -0.0780    -3.2840 o          1 HBA      -0.522100
      3 C7           0.3040    -0.0020    -1.0160 ca         1 HBA      -0.229600
      4 C2           1.4550    -0.0060    -0.2010 ca         1 HBA      -0.028500
      5 C3           1.3290     0.0630     1.1970 ca         1 HBA      -0.177000
      6 C4           0.0610     0.1370     1.7880 ca         1 HBA       0.156100
      7 C5          -1.0890     0.1420     0.9840 ca         1 HBA      -0.177000
      8 C6          -0.9710     0.0720    -0.4150 ca         1 HBA      -0.028500
      9 O4          -0.0470     0.2040     3.1450 oh         1 HBA      -0.542100
     10 H1           1.4940    -0.1330    -2.8970 h4         1 HBA      -0.012800
     11 H2           2.4470    -0.0630    -0.6480 ha         1 HBA       0.125000
     12 H3           2.2190     0.0600     1.8220 ha         1 HBA       0.127000
     13 H5          -2.0780     0.1980     1.4340 ha         1 HBA       0.127000
     14 H6          -1.8710     0.0760    -1.0280 ha         1 HBA       0.125000
     15 HO4         -0.9990     0.2500     3.3780 ho         1 HBA       0.469000
@<TRIPOS>BOND
     1     1     2 2   
     2     1     3 1   
     3     1    10 1   
     4     3     4 ar  
     5     3     8 ar  
     6     4     5 ar  
     7     4    11 1   
     8     5     6 ar  
     9     5    12 1   
    10     6     7 ar  
    11     6     9 1   
    12     7     8 ar  
    13     7    13 1   
    14     8    14 1   
    15     9    15 1   
@<TRIPOS>SUBSTRUCTURE
     1 HBA         1 TEMP              0 ****  ****    0 ROOT
