@<TRIPOS>MOLECULE
HBB
   83    85     1     0     0
SMALL
abcg2


@<TRIPOS>ATOM
      1 C1           6.1820    -0.0450    14.4710 c3         1 HBB       0.116700
      2 C2           7.5120     0.6940    14.2150 c3         1 HBB      -0.043100
      3 C3           7.5600     1.2380    12.8130 ca         1 HBB      -0.089300
      4 C7           7.5440     0.8650    10.4200 ca         1 HBB      -0.121000
      5 C8           7.6550     0.3810    11.7160 ca         1 HBB      -0.089000
      6 C10          5.8740     2.5250     8.3690 c3         1 HBB       0.159600
      7 C11          4.9240     3.6870     8.7050 c3         1 HBB      -0.099400
      8 C12          3.5710     3.2440     9.2830 c3         1 HBB      -0.151400
      9 C13          3.6020     3.0470    10.7880 c          1 HBB       0.599100
     10 C16          3.1850     1.4470    12.6330 c3         1 HBB       0.037700
     11 C20          4.2840     0.4410    12.9800 c          1 HBB       0.588100
     12 N26          6.7070    -2.8100    15.5460 n3         1 HBB      -0.776500
     13 C27          5.4730    -3.5680    15.8430 c3         1 HBB       0.224800
     14 C30          2.3990    -3.6070    16.2810 c3         1 HBB      -0.088100
     15 C31          2.1940    -4.0820    13.8200 c3         1 HBB      -0.088100
     16 C35          8.7190    -4.4920    16.3010 ca         1 HBB      -0.307500
     17 C4           7.4010     2.6020    12.5750 ca         1 HBB      -0.089000
     18 C5           7.2980     3.1010    11.2810 ca         1 HBB      -0.121000
     19 C6           7.3420     2.2270    10.2040 ca         1 HBB       0.086100
     20 O9           7.1990     2.7020     8.9150 os         1 HBB      -0.370100
     21 O14          3.8490     3.9880    11.5440 o          1 HBB      -0.615100
     22 N15          3.3140     1.8060    11.2310 ns         1 HBB      -0.494900
     23 C17          1.7920     0.8560    12.9340 c3         1 HBB      -0.071700
     24 C18          1.7060     0.3500    14.3750 c3         1 HBB      -0.089100
     25 O21          4.4140    -0.5890    12.3180 o          1 HBB      -0.615100
     26 N22          5.0490     0.7570    14.0380 ns         1 HBB      -0.491900
     27 C23          5.9910    -0.4750    15.9240 c3         1 HBB       0.152300
     28 O24          6.1840     0.6610    16.7660 oh         1 HBB      -0.664000
     29 C25          6.9480    -1.5980    16.3350 c3         1 HBB       0.190800
     30 C28          4.4200    -3.4170    14.7500 c3         1 HBB      -0.090400
     31 C29          3.1110    -4.1570    15.0410 c3         1 HBB      -0.059700
     32 S32          7.9830    -3.6270    14.9380 sy         1 HBB       1.203600
     33 O33          8.9370    -2.6520    14.4600 o          1 HBB      -0.541500
     34 O34          7.4590    -4.6100    14.0190 o          1 HBB      -0.541500
     35 C36          9.6080    -3.8180    17.1360 ca         1 HBB      -0.018000
     36 C37         10.1220    -4.4730    18.2470 ca         1 HBB      -0.130000
     37 C38          9.7490    -5.7870    18.5200 ca         1 HBB      -0.057000
     38 C39          8.8640    -6.4520    17.6780 ca         1 HBB      -0.130000
     39 C40          8.3420    -5.8070    16.5620 ca         1 HBB      -0.018000
     40 H1           6.1580    -0.9430    13.8590 h1         1 HBB       0.098700
     41 H21          8.3290    -0.0080    14.3860 hc         1 HBB       0.068200
     42 H22A         7.6180     1.5090    14.9310 hc         1 HBB       0.068200
     43 H7           7.5960     0.1950     9.5720 ha         1 HBB       0.123500
     44 H8           7.7890    -0.6820    11.8780 ha         1 HBB       0.118500
     45 H101         6.0160     2.4430     7.2930 h1         1 HBB       0.049200
     46 H102         5.4720     1.5750     8.7300 h1         1 HBB       0.049200
     47 H111         4.7440     4.2720     7.8020 hc         1 HBB       0.064700
     48 H112         5.4130     4.3560     9.4140 hc         1 HBB       0.064700
     49 H121         3.2140     2.3460     8.7740 hc         1 HBB       0.059200
     50 H122         2.8310     4.0290     9.1080 hc         1 HBB       0.059200
     51 H16          3.3190     2.3630    13.2050 h1         1 HBB       0.088700
     52 H191         0.7440     2.2470    11.6210 hc         1 HBB       0.038200
     53 H192        -0.2860     1.4500    12.8140 hc         1 HBB       0.038200
     54 H193         0.8050     2.7470    13.3170 hc         1 HBB       0.038200
     55 H271         5.1070    -3.2000    16.8010 h1         1 HBB       0.043200
     56 H272         5.7120    -4.6230    15.9830 h1         1 HBB       0.043200
     57 H301         1.4470    -4.1180    16.4380 hc         1 HBB       0.033700
     58 H302         2.9940    -3.7310    17.1870 hc         1 HBB       0.033700
     59 H303         2.1920    -2.5390    16.1580 hc         1 HBB       0.033700
     60 H311         1.9380    -3.0420    13.5980 hc         1 HBB       0.033700
     61 H312         2.6780    -4.5040    12.9360 hc         1 HBB       0.033700
     62 H313         1.2640    -4.6280    13.9920 hc         1 HBB       0.033700
     63 H4           7.3270     3.2820    13.4150 ha         1 HBB       0.118500
     64 H5           7.1560     4.1590    11.1050 ha         1 HBB       0.123500
     65 H15          3.1400     1.0800    10.5530 hn         1 HBB       0.324500
     66 H17          1.6570     0.0030    12.2600 hc         1 HBB       0.061700
     67 H181         1.9060     1.1600    15.0820 hc         1 HBB       0.038200
     68 H182         0.7040    -0.0340    14.5770 hc         1 HBB       0.038200
     69 H183         2.4160    -0.4540    14.5720 hc         1 HBB       0.038200
     70 H22          4.8970     1.6430    14.4950 hn         1 HBB       0.324500
     71 H23          4.9620    -0.8280    16.0280 h1         1 HBB       0.046700
     72 H24          5.7940     0.4740    17.6280 ho         1 HBB       0.443000
     73 H251         7.9730    -1.2720    16.1910 h1         1 HBB       0.059200
     74 H252         6.8050    -1.8120    17.3990 h1         1 HBB       0.059200
     75 H281         4.8480    -3.7840    13.8150 hc         1 HBB       0.064700
     76 H282         4.1990    -2.3580    14.5970 hc         1 HBB       0.064700
     77 H29          3.3510    -5.2120    15.2250 hc         1 HBB       0.044700
     78 H36          9.9010    -2.8010    16.9150 ha         1 HBB       0.133500
     79 H37         10.8160    -3.9580    18.8990 ha         1 HBB       0.120000
     80 H38         10.1530    -6.2930    19.3880 ha         1 HBB       0.118000
     81 H39          8.5790    -7.4760    17.8860 ha         1 HBB       0.120000
     82 H40          7.6610    -6.3190    15.8980 ha         1 HBB       0.133500
     83 C19          0.7010     1.8870    12.6500 c3         1 HBB      -0.089100
@<TRIPOS>BOND
     1     1     2 1   
     2     1    26 1   
     3     1    27 1   
     4     1    40 1   
     5     2     3 1   
     6     2    41 1   
     7     2    42 1   
     8     3     5 ar  
     9     3    17 ar  
    10     4     5 ar  
    11     4    19 ar  
    12     4    43 1   
    13     5    44 1   
    14     6     7 1   
    15     6    20 1   
    16     6    45 1   
    17     6    46 1   
    18     7     8 1   
    19     7    47 1   
    20     7    48 1   
    21     8     9 1   
    22     8    49 1   
    23     8    50 1   
    24     9    21 2   
    25     9    22 1   
    26    10    11 1   
    27    10    22 1   
    28    10    23 1   
    29    10    51 1   
    30    11    25 2   
    31    11    26 1   
    32    12    13 1   
    33    12    29 1   
    34    12    32 1   
    35    13    30 1   
    36    13    55 1   
    37    13    56 1   
    38    14    31 1   
    39    14    57 1   
    40    14    58 1   
    41    14    59 1   
    42    15    31 1   
    43    15    60 1   
    44    15    61 1   
    45    15    62 1   
    46    16    32 1   
    47    16    35 ar  
    48    16    39 ar  
    49    17    18 ar  
    50    17    63 1   
    51    18    19 ar  
    52    18    64 1   
    53    19    20 1   
    54    22    65 1   
    55    23    24 1   
    56    23    66 1   
    57    23    83 1   
    58    24    67 1   
    59    24    68 1   
    60    24    69 1   
    61    26    70 1   
    62    27    28 1   
    63    27    29 1   
    64    27    71 1   
    65    28    72 1   
    66    29    73 1   
    67    29    74 1   
    68    30    31 1   
    69    30    75 1   
    70    30    76 1   
    71    31    77 1   
    72    32    33 2   
    73    32    34 2   
    74    35    36 ar  
    75    35    78 1   
    76    36    37 ar  
    77    36    79 1   
    78    37    38 ar  
    79    37    80 1   
    80    38    39 ar  
    81    38    81 1   
    82    39    82 1   
    83    52    83 1   
    84    53    83 1   
    85    54    83 1   
@<TRIPOS>SUBSTRUCTURE
     1 HBB         1 TEMP              0 ****  ****    0 ROOT
