@<TRIPOS>MOLECULE
HBB
   83    85     1     0     0
SMALL
No Charge or Current Charge


@<TRIPOS>ATOM
      1 C1           6.2850    -0.2930    14.3100 c3         1 HBB       0.116700
      2 C2           7.6340     0.3520    13.8660 c3         1 HBB      -0.043100
      3 C3           7.4630     1.1540    12.5800 ca         1 HBB      -0.089300
      4 C7           6.9350     1.2010    10.2010 ca         1 HBB      -0.121000
      5 C8           7.3320     0.4910    11.3460 ca         1 HBB      -0.089000
      6 C10          5.3660     2.7050     8.1910 c3         1 HBB       0.159600
      7 C11          4.0500     3.5050     8.0690 c3         1 HBB      -0.099400
      8 C12          2.9150     3.0560     9.0340 c3         1 HBB      -0.151400
      9 C13          3.2510     3.1670    10.5320 c          1 HBB       0.599100
     10 C16          3.4420     1.8030    12.6820 c3         1 HBB       0.037700
     11 C20          4.3320     0.5490    12.9390 c          1 HBB       0.588100
     12 N26          7.1900    -3.1400    15.1990 n3         1 HBB      -0.776500
     13 C27          5.9360    -3.9150    15.3980 c3         1 HBB       0.224800
     14 C30          2.8580    -4.4440    15.7760 c3         1 HBB      -0.088100
     15 C31          2.6330    -4.2460    13.2480 c3         1 HBB      -0.088100
     16 C35          8.6740    -4.7000    16.9040 ca         1 HBB      -0.307500
     17 C4           7.2690     2.5470    12.6460 ca         1 HBB      -0.089000
     18 C5           6.8720     3.2560    11.5030 ca         1 HBB      -0.121000
     19 C6           6.6610     2.5820    10.2910 ca         1 HBB       0.086100
     20 O9           6.1440     3.3080     9.2410 os         1 HBB      -0.370100
     21 O14          3.4190     4.2410    11.0910 o          1 HBB      -0.615100
     22 N15          3.2640     1.9670    11.2150 ns         1 HBB      -0.494900
     23 C17          2.0600     1.7030    13.4110 c3         1 HBB      -0.071700
     24 C18          2.1990     1.4730    14.9370 c3         1 HBB      -0.089100
     25 O21          4.3240    -0.4280    12.1990 o          1 HBB      -0.615100
     26 N22          5.1590     0.6210    14.0450 ns         1 HBB      -0.491900
     27 C23          6.2530    -0.7990    15.7850 c3         1 HBB       0.152300
     28 O24          6.4560     0.3050    16.6940 oh         1 HBB      -0.664000
     29 C25          7.2930    -1.9240    16.0600 c3         1 HBB       0.190800
     30 C28          4.8390    -3.6010    14.3530 c3         1 HBB      -0.090400
     31 C29          3.5990    -4.5330    14.4200 c3         1 HBB      -0.059700
     32 S32          8.6050    -4.1010    15.2040 sy         1 HBB       1.203600
     33 O33          9.7220    -3.1830    14.9540 o          1 HBB      -0.541500
     34 O34          8.3460    -5.2180    14.2880 o          1 HBB      -0.541500
     35 C36          9.3440    -3.9490    17.8920 ca         1 HBB      -0.018000
     36 C37          9.3910    -4.4130    19.2180 ca         1 HBB      -0.130000
     37 C38          8.7760    -5.6280    19.5640 ca         1 HBB      -0.057000
     38 C39          8.1140    -6.3820    18.5800 ca         1 HBB      -0.130000
     39 C40          8.0620    -5.9240    17.2520 ca         1 HBB      -0.018000
     40 H1           6.1500    -1.1750    13.6710 h1         1 HBB       0.098700
     41 H21          8.3880    -0.4330    13.7320 hc         1 HBB       0.068200
     42 H22A         8.0110     1.0060    14.6610 hc         1 HBB       0.068200
     43 H7           6.8150     0.6620     9.2650 ha         1 HBB       0.123500
     44 H8           7.4750    -0.5860    11.2870 ha         1 HBB       0.118500
     45 H101         5.9170     2.7570     7.2430 h1         1 HBB       0.049200
     46 H102         5.1200     1.6540     8.3880 h1         1 HBB       0.049200
     47 H111         3.6810     3.3960     7.0410 hc         1 HBB       0.064700
     48 H112         4.2550     4.5740     8.2070 hc         1 HBB       0.064700
     49 H121         2.6430     2.0210     8.7930 hc         1 HBB       0.059200
     50 H122         2.0440     3.6940     8.8420 hc         1 HBB       0.059200
     51 H16          3.9910     2.6720    13.0680 h1         1 HBB       0.088700
     52 H191         0.8940     3.0090    12.0790 hc         1 HBB       0.038200
     53 H192         0.2000     2.8310    13.6910 hc         1 HBB       0.038200
     54 H193         1.6320     3.8550    13.4590 hc         1 HBB       0.038200
     55 H271         5.5430    -3.7420    16.4080 h1         1 HBB       0.043200
     56 H272         6.1230    -4.9940    15.3300 h1         1 HBB       0.043200
     57 H301         1.9690    -5.0860    15.7720 hc         1 HBB       0.033700
     58 H302         3.4990    -4.7760    16.6010 hc         1 HBB       0.033700
     59 H303         2.5370    -3.4160    15.9790 hc         1 HBB       0.033700
     60 H311         2.2420    -3.2230    13.3050 hc         1 HBB       0.033700
     61 H312         3.1440    -4.3650    12.2850 hc         1 HBB       0.033700
     62 H313         1.7840    -4.9400    13.2660 hc         1 HBB       0.033700
     63 H4           7.3590     3.0700    13.5960 ha         1 HBB       0.118500
     64 H5           6.6690     4.3220    11.5690 ha         1 HBB       0.123500
     65 H15          3.1340     1.1280    10.6620 hn         1 HBB       0.324500
     66 H17          1.5420     0.8250    13.0060 hc         1 HBB       0.061700
     67 H181         2.7930     2.2690    15.4020 hc         1 HBB       0.038200
     68 H182         1.2130     1.4600    15.4190 hc         1 HBB       0.038200
     69 H183         2.6740     0.5090    15.1550 hc         1 HBB       0.038200
     70 H22          5.0880     1.4510    14.6210 hn         1 HBB       0.324500
     71 H23          5.2570    -1.2180    15.9710 h1         1 HBB       0.046700
     72 H24          6.1420     0.0200    17.5810 ho         1 HBB       0.443000
     73 H251         8.2820    -1.4600    15.9470 h1         1 HBB       0.059200
     74 H252         7.2110    -2.2150    17.1160 h1         1 HBB       0.059200
     75 H281         5.2890    -3.6830    13.3570 hc         1 HBB       0.064700
     76 H282         4.4980    -2.5670    14.4560 hc         1 HBB       0.064700
     77 H29          3.9500    -5.5660    14.3030 hc         1 HBB       0.044700
     78 H36          9.8270    -3.0050    17.6400 ha         1 HBB       0.133500
     79 H37          9.9060    -3.8310    19.9780 ha         1 HBB       0.120000
     80 H38          8.8140    -5.9860    20.5900 ha         1 HBB       0.118000
     81 H39          7.6410    -7.3250    18.8470 ha         1 HBB       0.120000
     82 H40          7.5490    -6.5230    16.5020 ha         1 HBB       0.133500
     83 C19          1.1450     2.9250    13.1420 c3         1 HBB      -0.089100
@<TRIPOS>BOND
     1     1     2 1   
     2     1    26 1   
     3     1    27 1   
     4     1    40 1   
     5     2     3 1   
     6     2    41 1   
     7     2    42 1   
     8     3     5 ar  
     9     3    17 ar  
    10     4     5 ar  
    11     4    19 ar  
    12     4    43 1   
    13     5    44 1   
    14     6     7 1   
    15     6    20 1   
    16     6    45 1   
    17     6    46 1   
    18     7     8 1   
    19     7    47 1   
    20     7    48 1   
    21     8     9 1   
    22     8    49 1   
    23     8    50 1   
    24     9    21 2   
    25     9    22 1   
    26    10    11 1   
    27    10    22 1   
    28    10    23 1   
    29    10    51 1   
    30    11    25 2   
    31    11    26 1   
    32    12    13 1   
    33    12    29 1   
    34    12    32 1   
    35    13    30 1   
    36    13    55 1   
    37    13    56 1   
    38    14    31 1   
    39    14    57 1   
    40    14    58 1   
    41    14    59 1   
    42    15    31 1   
    43    15    60 1   
    44    15    61 1   
    45    15    62 1   
    46    16    32 1   
    47    16    35 ar  
    48    16    39 ar  
    49    17    18 ar  
    50    17    63 1   
    51    18    19 ar  
    52    18    64 1   
    53    19    20 1   
    54    22    65 1   
    55    23    24 1   
    56    23    66 1   
    57    23    83 1   
    58    24    67 1   
    59    24    68 1   
    60    24    69 1   
    61    26    70 1   
    62    27    28 1   
    63    27    29 1   
    64    27    71 1   
    65    28    72 1   
    66    29    73 1   
    67    29    74 1   
    68    30    31 1   
    69    30    75 1   
    70    30    76 1   
    71    31    77 1   
    72    32    33 2   
    73    32    34 2   
    74    35    36 ar  
    75    35    78 1   
    76    36    37 ar  
    77    36    79 1   
    78    37    38 ar  
    79    37    80 1   
    80    38    39 ar  
    81    38    81 1   
    82    39    82 1   
    83    52    83 1   
    84    53    83 1   
    85    54    83 1   
@<TRIPOS>SUBSTRUCTURE
     1 HBB         1 TEMP              0 ****  ****    0 ROOT
