@<TRIPOS>MOLECULE
HBC
   43    46     1     0     0
SMALL
No Charge or Current Charge


@<TRIPOS>ATOM
      1 C1          16.6640     4.4480    56.7170 ca         1 HBC      -0.161600
      2 C2          15.9600     4.7250    55.5230 ca         1 HBC      -0.073000
      3 C3          16.2440     4.0250    54.3380 ca         1 HBC      -0.122000
      4 C4          17.2550     3.0530    54.3210 ca         1 HBC      -0.096000
      5 C5          17.9960     2.8000    55.4860 ca         1 HBC      -0.122000
      6 C6          17.7140     3.5000    56.6730 ca         1 HBC      -0.073000
      7 C7          15.7210     5.4660    60.4590 c5         1 HBC      -0.048700
      8 C8          15.5300     4.7500    61.8490 c5         1 HBC      -0.086400
      9 C9          14.1540     4.0270    61.6970 c5         1 HBC      -0.084400
     10 C10         13.7350     4.3850    60.2350 c5         1 HBC      -0.066700
     11 C11         14.2520     5.8400    60.1480 c5         1 HBC      -0.085400
     12 C12         14.7090     3.5690    59.3000 c5         1 HBC      -0.040400
     13 C13         16.0650     4.4140    59.3130 c5         1 HBC       0.089200
     14 N1          17.2180     3.5590    59.7390 n8         1 HBC      -0.993200
     15 C14         16.3200     5.2660    57.9530 c          1 HBC       0.604700
     16 O1          16.3090     6.4920    57.8670 o          1 HBC      -0.516100
     17 C15         14.4640     2.2310    57.1640 ca         1 HBC      -0.101000
     18 C16         14.1010     3.3860    57.8920 ca         1 HBC      -0.081300
     19 C17         13.1540     4.2670    57.3110 ca         1 HBC      -0.101000
     20 C18         12.6120     4.0060    56.0410 ca         1 HBC      -0.111000
     21 C19         12.9970     2.8600    55.3290 ca         1 HBC      -0.110000
     22 C20         13.9230     1.9710    55.8940 ca         1 HBC      -0.111000
     23 H21         15.1740     5.4770    55.5190 ha         1 HBC       0.129000
     24 H31         15.6780     4.2360    53.4340 ha         1 HBC       0.114000
     25 H41         17.4770     2.5110    53.4040 ha         1 HBC       0.112000
     26 H51         18.8010     2.0690    55.4670 ha         1 HBC       0.114000
     27 H61         18.3460     3.3170    57.5350 ha         1 HBC       0.129000
     28 H71         16.4090     6.3190    60.5060 hc         1 HBC       0.084700
     29 H81         15.4790     5.4910    62.6560 hc         1 HBC       0.048200
     30 H82         16.3410     4.0680    62.1250 hc         1 HBC       0.048200
     31 H91         13.4280     4.4170    62.4200 hc         1 HBC       0.044700
     32 H92         14.2210     2.9480    61.8760 hc         1 HBC       0.044700
     33 H10         12.6650     4.2400    60.0430 hc         1 HBC       0.072700
     34 H111        14.1060     6.3160    59.1740 hc         1 HBC       0.062200
     35 H112        13.8060     6.5040    60.8990 hc         1 HBC       0.062200
     36 H12         14.8720     2.5720    59.7280 hc         1 HBC       0.047700
     37 HN11        17.0270     3.1930    60.6770 hn         1 HBC       0.404000
     38 HN12        17.2420     2.7150    59.1580 hn         1 HBC       0.404000
     39 H15         15.1790     1.5280    57.5840 ha         1 HBC       0.114000
     40 H17         12.8170     5.1570    57.8310 ha         1 HBC       0.114000
     41 H18         11.8890     4.6940    55.6090 ha         1 HBC       0.114000
     42 H19         12.5780     2.6600    54.3450 ha         1 HBC       0.113000
     43 H20         14.2240     1.0800    55.3470 ha         1 HBC       0.114000
@<TRIPOS>BOND
     1     1     2 ar  
     2     1     6 ar  
     3     1    15 1   
     4     2     3 ar  
     5     2    23 1   
     6     3     4 ar  
     7     3    24 1   
     8     4     5 ar  
     9     4    25 1   
    10     5     6 ar  
    11     5    26 1   
    12     6    27 1   
    13     7     8 1   
    14     7    11 1   
    15     7    13 1   
    16     7    28 1   
    17     8     9 1   
    18     8    29 1   
    19     8    30 1   
    20     9    10 1   
    21     9    31 1   
    22     9    32 1   
    23    10    11 1   
    24    10    12 1   
    25    10    33 1   
    26    11    34 1   
    27    11    35 1   
    28    12    13 1   
    29    12    18 1   
    30    12    36 1   
    31    13    14 1   
    32    13    15 1   
    33    14    37 1   
    34    14    38 1   
    35    15    16 2   
    36    17    18 ar  
    37    17    22 ar  
    38    17    39 1   
    39    18    19 ar  
    40    19    20 ar  
    41    19    40 1   
    42    20    21 ar  
    43    20    41 1   
    44    21    22 ar  
    45    21    42 1   
    46    22    43 1   
@<TRIPOS>SUBSTRUCTURE
     1 HBC         1 TEMP              0 ****  ****    0 ROOT
