@<TRIPOS>MOLECULE
HBC
   43    46     1     0     0
SMALL
abcg2


@<TRIPOS>ATOM
      1 C1          16.8140     4.3130    56.7230 ca         1 HBC      -0.161600
      2 C2          16.1020     4.2620    55.5210 ca         1 HBC      -0.073000
      3 C3          16.6530     3.6580    54.4010 ca         1 HBC      -0.122000
      4 C4          17.9390     3.1280    54.4550 ca         1 HBC      -0.096000
      5 C5          18.6680     3.2050    55.6370 ca         1 HBC      -0.122000
      6 C6          18.1080     3.7860    56.7700 ca         1 HBC      -0.073000
      7 C7          15.7340     5.4070    60.3480 c5         1 HBC      -0.048700
      8 C8          15.6760     4.7180    61.7260 c5         1 HBC      -0.086400
      9 C9          14.3000     3.9870    61.7010 c5         1 HBC      -0.084400
     10 C10         13.7170     4.3940    60.3320 c5         1 HBC      -0.066700
     11 C11         14.2630     5.8240    60.1890 c5         1 HBC      -0.085400
     12 C12         14.4810     3.6120    59.2390 c5         1 HBC      -0.040400
     13 C13         15.9190     4.3490    59.2230 c5         1 HBC       0.089200
     14 N1          17.0340     3.4450    59.4960 n8         1 HBC      -0.993200
     15 C14         16.1700     5.0430    57.8690 c          1 HBC       0.604700
     16 O1          15.7970     6.1830    57.6710 o          1 HBC      -0.516100
     17 C15         13.9650     2.2610    57.1990 ca         1 HBC      -0.101000
     18 C16         13.7800     3.4470    57.9150 ca         1 HBC      -0.081300
     19 C17         12.9480     4.4240    57.3600 ca         1 HBC      -0.101000
     20 C18         12.3340     4.2250    56.1280 ca         1 HBC      -0.111000
     21 C19         12.5380     3.0430    55.4230 ca         1 HBC      -0.110000
     22 C20         13.3540     2.0570    55.9670 ca         1 HBC      -0.111000
     23 H21         15.1050     4.6770    55.4770 ha         1 HBC       0.129000
     24 H31         16.0800     3.6040    53.4840 ha         1 HBC       0.114000
     25 H41         18.3730     2.6620    53.5790 ha         1 HBC       0.112000
     26 H51         19.6760     2.8130    55.6810 ha         1 HBC       0.114000
     27 H61         18.6830     3.8490    57.6820 ha         1 HBC       0.129000
     28 H71         16.4740     6.2030    60.2850 hc         1 HBC       0.084700
     29 H81         15.6930     5.4850    62.5010 hc         1 HBC       0.048200
     30 H82         16.5150     4.0540    61.9290 hc         1 HBC       0.048200
     31 H91         13.6570     4.3330    62.5110 hc         1 HBC       0.044700
     32 H92         14.3980     2.9040    61.7950 hc         1 HBC       0.044700
     33 H10         12.6370     4.2790    60.2610 hc         1 HBC       0.072700
     34 H111        14.0470     6.2970    59.2380 hc         1 HBC       0.062200
     35 H112        13.9320     6.4790    60.9980 hc         1 HBC       0.062200
     36 H12         14.6950     2.6050    59.5970 hc         1 HBC       0.047700
     37 HN11        16.8740     2.9630    60.3720 hn         1 HBC       0.404000
     38 HN12        17.0740     2.7190    58.7890 hn         1 HBC       0.404000
     39 H15         14.6010     1.4890    57.6150 ha         1 HBC       0.114000
     40 H17         12.7730     5.3500    57.8880 ha         1 HBC       0.114000
     41 H18         11.6960     4.9980    55.7180 ha         1 HBC       0.114000
     42 H19         12.0610     2.8900    54.4630 ha         1 HBC       0.113000
     43 H20         13.5190     1.1300    55.4320 ha         1 HBC       0.114000
@<TRIPOS>BOND
     1     1     2 ar  
     2     1     6 ar  
     3     1    15 1   
     4     2     3 ar  
     5     2    23 1   
     6     3     4 ar  
     7     3    24 1   
     8     4     5 ar  
     9     4    25 1   
    10     5     6 ar  
    11     5    26 1   
    12     6    27 1   
    13     7     8 1   
    14     7    11 1   
    15     7    13 1   
    16     7    28 1   
    17     8     9 1   
    18     8    29 1   
    19     8    30 1   
    20     9    10 1   
    21     9    31 1   
    22     9    32 1   
    23    10    11 1   
    24    10    12 1   
    25    10    33 1   
    26    11    34 1   
    27    11    35 1   
    28    12    13 1   
    29    12    18 1   
    30    12    36 1   
    31    13    14 1   
    32    13    15 1   
    33    14    37 1   
    34    14    38 1   
    35    15    16 2   
    36    17    18 ar  
    37    17    22 ar  
    38    17    39 1   
    39    18    19 ar  
    40    19    20 ar  
    41    19    40 1   
    42    20    21 ar  
    43    20    41 1   
    44    21    22 ar  
    45    21    42 1   
    46    22    43 1   
@<TRIPOS>SUBSTRUCTURE
     1 HBC         1 TEMP              0 ****  ****    0 ROOT
