@<TRIPOS>MOLECULE
HBD
   17    17     1     0     0
SMALL
abcg2


@<TRIPOS>ATOM
      1 C1           0.0320    -0.0570     0.6750 ca         1 HBD      -0.195600
      2 C2          -1.1350     0.1090    -0.0660 ca         1 HBD      -0.030000
      3 C3          -1.0990     0.2100    -1.4440 ca         1 HBD      -0.189500
      4 C4           0.1190     0.1210    -2.1170 ca         1 HBD       0.162100
      5 C5           1.2930    -0.0700    -1.3890 ca         1 HBD      -0.189500
      6 C6           1.2440    -0.1540    -0.0100 ca         1 HBD      -0.030000
      7 C7          -0.0740    -0.1590     2.1580 c          1 HBD       0.620700
      8 O1          -1.1130    -0.5180     2.6980 o          1 HBD      -0.607100
      9 N1           1.0310     0.1570     2.8560 nt         1 HBD      -0.603000
     10 O4           0.2170     0.2060    -3.4530 oh         1 HBD      -0.529100
     11 H2          -2.0890     0.1750     0.4410 ha         1 HBD       0.125000
     12 H3          -2.0190     0.3570    -1.9980 ha         1 HBD       0.124500
     13 H5           2.2390    -0.1590    -1.9080 ha         1 HBD       0.124500
     14 H6           2.1710    -0.3240     0.5230 ha         1 HBD       0.125000
     15 HN'1         1.0000     0.1410     3.8620 hn         1 HBD       0.311000
     16 HN'2         1.8100     0.6330     2.4370 hn         1 HBD       0.311000
     17 HO4         -0.6500     0.3570    -3.8480 ho         1 HBD       0.469000
@<TRIPOS>BOND
     1     1     2 ar  
     2     1     6 ar  
     3     1     7 1   
     4     2     3 ar  
     5     2    11 1   
     6     3     4 ar  
     7     3    12 1   
     8     4     5 ar  
     9     4    10 1   
    10     5     6 ar  
    11     5    13 1   
    12     6    14 1   
    13     7     8 2   
    14     7     9 1   
    15     9    15 1   
    16     9    16 1   
    17    10    17 1   
@<TRIPOS>SUBSTRUCTURE
     1 HBD         1 TEMP              0 ****  ****    0 ROOT
