@<TRIPOS>MOLECULE
HBD
   17    17     1     0     0
SMALL
No Charge or Current Charge


@<TRIPOS>ATOM
      1 C1           0.0130     0.0460     0.6810 ca         1 HBD      -0.195600
      2 C2          -1.1710     0.0990    -0.0910 ca         1 HBD      -0.030000
      3 C3          -1.1110     0.1340    -1.4950 ca         1 HBD      -0.189500
      4 C4           0.1300     0.1160    -2.1450 ca         1 HBD       0.162100
      5 C5           1.3110     0.0640    -1.3950 ca         1 HBD      -0.189500
      6 C6           1.2600     0.0290     0.0100 ca         1 HBD      -0.030000
      7 C7          -0.0850     0.0100     2.1890 c          1 HBD       0.620700
      8 O1          -1.1520     0.0250     2.7800 o          1 HBD      -0.607100
      9 N1           1.0580    -0.0400     2.9060 nt         1 HBD      -0.603000
     10 O4           0.1960     0.1490    -3.5050 oh         1 HBD      -0.529100
     11 H2          -2.1440     0.1140     0.3970 ha         1 HBD       0.125000
     12 H3          -2.0340     0.1750    -2.0680 ha         1 HBD       0.124500
     13 H5           2.2730     0.0500    -1.9010 ha         1 HBD       0.124500
     14 H6           2.1970    -0.0120     0.5600 ha         1 HBD       0.125000
     15 HN'1         1.0040    -0.0650     3.9130 hn         1 HBD       0.311000
     16 HN'2         1.9510    -0.0530     2.4400 hn         1 HBD       0.311000
     17 HO4         -0.7180     0.1840    -3.8580 ho         1 HBD       0.469000
@<TRIPOS>BOND
     1     1     2 ar  
     2     1     6 ar  
     3     1     7 1   
     4     2     3 ar  
     5     2    11 1   
     6     3     4 ar  
     7     3    12 1   
     8     4     5 ar  
     9     4    10 1   
    10     5     6 ar  
    11     5    13 1   
    12     6    14 1   
    13     7     8 2   
    14     7     9 1   
    15     9    15 1   
    16     9    16 1   
    17    10    17 1   
@<TRIPOS>SUBSTRUCTURE
     1 HBD         1 TEMP              0 ****  ****    0 ROOT
