@<TRIPOS>MOLECULE
HBE
   24    25     1     0     0
SMALL
No Charge or Current Charge


@<TRIPOS>ATOM
      1 C3          -1.7820     0.0880     0.3170 c6         1 HBE       0.145300
      2 C4          -0.9050     1.0010    -0.5990 c6         1 HBE       0.134300
      3 C5           0.5890     1.0010    -0.1430 c6         1 HBE       0.188300
      4 C1           0.3110    -1.5110     0.3580 cx         1 HBE       0.100300
      5 C2          -1.1700    -1.3130     0.5640 cx         1 HBE       0.068300
      6 C6           1.1940    -0.4260    -0.2920 c6         1 HBE      -0.053700
      7 O7           0.7000     1.4920     1.2080 oh         1 HBE      -0.727000
      8 O8          -1.4410     2.3390    -0.6020 oh         1 HBE      -0.671000
      9 O9          -3.1120    -0.0350    -0.2320 oh         1 HBE      -0.717000
     10 C10          2.6720    -0.5310     0.1820 c3         1 HBE       0.177600
     11 O11          3.5450     0.3030    -0.5920 oh         1 HBE      -0.660000
     12 O12         -0.6670    -2.0760    -0.5540 op         1 HBE      -0.428000
     13 H1          -1.8400     0.5680     1.3070 h1         1 HBE       0.054700
     14 H2          -0.9400     0.5890    -1.6190 h1         1 HBE       0.068700
     15 H3           1.1440     1.6680    -0.8210 h1         1 HBE       0.070700
     16 H4           0.8320    -2.2410     0.9790 h1         1 HBE       0.089700
     17 H5          -1.6600    -1.8990     1.3410 h1         1 HBE       0.086700
     18 H7           1.2270    -0.6540    -1.3660 hc         1 HBE       0.082700
     19 H8           0.1780     2.3300     1.2180 ho         1 HBE       0.518000
     20 H9          -2.4140     2.2230    -0.7070 ho         1 HBE       0.463000
     21 H10         -3.6170    -0.6390     0.3620 ho         1 HBE       0.508000
     22 H11          2.7300    -0.2650     1.2460 h1         1 HBE       0.026200
     23 H12          2.9900    -1.5790     0.0900 h1         1 HBE       0.026200
     24 H13          4.4470     0.2000    -0.2150 ho         1 HBE       0.447000
@<TRIPOS>BOND
     1     1     2 1   
     2     1     5 1   
     3     1     9 1   
     4     1    13 1   
     5     2     3 1   
     6     2     8 1   
     7     2    14 1   
     8     3     6 1   
     9     3     7 1   
    10     3    15 1   
    11     4     5 1   
    12     4     6 1   
    13     4    12 1   
    14     4    16 1   
    15     5    12 1   
    16     5    17 1   
    17     6    10 1   
    18     6    18 1   
    19     7    19 1   
    20     8    20 1   
    21     9    21 1   
    22    10    11 1   
    23    10    22 1   
    24    10    23 1   
    25    11    24 1   
@<TRIPOS>SUBSTRUCTURE
     1 HBE         1 TEMP              0 ****  ****    0 ROOT
