@<TRIPOS>MOLECULE
HBE
   24    25     1     0     0
SMALL
bcc


@<TRIPOS>ATOM
      1 C3          -1.7130     0.0540     0.3540 c6         1 HBE       0.122100
      2 C4          -0.9090     0.9060    -0.6230 c6         1 HBE       0.111100
      3 C5           0.5600     0.9490    -0.2140 c6         1 HBE       0.165100
      4 C1           0.3210    -1.5240     0.2430 cx         1 HBE       0.077100
      5 C2          -1.0810    -1.2920     0.5800 cx         1 HBE       0.045100
      6 C6           1.1860    -0.4360    -0.3640 c6         1 HBE      -0.053700
      7 O7           0.7070     1.3640     1.1260 oh         1 HBE      -0.604800
      8 O8          -1.3890     2.2320    -0.6490 oh         1 HBE      -0.608800
      9 O9          -3.0250    -0.0610    -0.1610 oh         1 HBE      -0.594800
     10 C10          2.5920    -0.5220     0.2150 c3         1 HBE       0.154400
     11 O11          3.3990     0.4550    -0.3970 oh         1 HBE      -0.597800
     12 O12         -0.7250    -2.0270    -0.5780 op         1 HBE      -0.381600
     13 H1          -1.7270     0.5670     1.3230 h1         1 HBE       0.054700
     14 H2          -0.9710     0.4540    -1.6240 h1         1 HBE       0.068700
     15 H3           1.0800     1.6400    -0.8910 h1         1 HBE       0.070700
     16 H4           0.8530    -2.2940     0.8010 h1         1 HBE       0.089700
     17 H5          -1.5340    -1.8850     1.3750 h1         1 HBE       0.086700
     18 H7           1.2610    -0.6410    -1.4390 hc         1 HBE       0.082700
     19 H8           0.2980     2.2310     1.2180 ho         1 HBE       0.419000
     20 H9          -2.3430     2.2040    -0.7810 ho         1 HBE       0.424000
     21 H10         -3.6280    -0.2410     0.5660 ho         1 HBE       0.409000
     22 H11          2.5580    -0.3990     1.3040 h1         1 HBE       0.026200
     23 H12          2.9750    -1.5340     0.0240 h1         1 HBE       0.026200
     24 H13          4.2650     0.4320     0.0210 ho         1 HBE       0.408000
@<TRIPOS>BOND
     1     1     2 1   
     2     1     5 1   
     3     1     9 1   
     4     1    13 1   
     5     2     3 1   
     6     2     8 1   
     7     2    14 1   
     8     3     6 1   
     9     3     7 1   
    10     3    15 1   
    11     4     5 1   
    12     4     6 1   
    13     4    12 1   
    14     4    16 1   
    15     5    12 1   
    16     5    17 1   
    17     6    10 1   
    18     6    18 1   
    19     7    19 1   
    20     8    20 1   
    21     9    21 1   
    22    10    11 1   
    23    10    22 1   
    24    10    23 1   
    25    11    24 1   
@<TRIPOS>SUBSTRUCTURE
     1 HBE         1 TEMP              0 ****  ****    0 ROOT
