@<TRIPOS>MOLECULE
HBG
   63    65     1     0     0
SMALL
abcg2


@<TRIPOS>ATOM
      1 C01          4.7000    -2.8560     0.3540 c3         1 HBG      -0.047800
      2 C02          3.2360    -3.0790     0.1110 ca         1 HBG      -0.077800
      3 C03          2.8040    -4.0560    -0.7820 ca         1 HBG      -0.099000
      4 C04          1.4520    -4.3130    -0.9940 ca         1 HBG      -0.077800
      5 C05          1.0190    -5.3950    -1.9400 c3         1 HBG      -0.047800
      6 C06          0.5150    -3.5650    -0.2900 ca         1 HBG      -0.085000
      7 C07          0.9260    -2.5660     0.5850 ca         1 HBG      -0.142600
      8 C08         -0.1130    -1.8210     1.3640 c          1 HBG       0.624700
      9 C11          0.4520     0.1950     0.0740 c3         1 HBG       0.016000
     10 C12          1.6940     0.9420     0.5550 c          1 HBG       0.577100
     11 C15          3.6550     2.2130    -0.2290 c6         1 HBG       0.110700
     12 C16          3.8130     3.2950    -1.2930 c6         1 HBG      -0.089900
     13 C17          5.1300     4.0460    -1.1200 c6         1 HBG      -0.071900
     14 C18          6.3200     3.0920    -1.1210 c6         1 HBG      -0.077400
     15 C19          6.1610     2.0140    -0.0540 c6         1 HBG      -0.071900
     16 C20          4.8480     1.2580    -0.2280 c6         1 HBG      -0.089900
     17 C21         -1.1610     0.3040     1.9230 c3         1 HBG       0.137300
     18 C22         -2.4520     0.5600     1.1870 ca         1 HBG      -0.089300
     19 C23         -3.3700    -0.4690     0.9780 ca         1 HBG      -0.108500
     20 C24         -4.5400    -0.2380     0.2770 ca         1 HBG      -0.075000
     21 C25         -4.8290     1.0320    -0.2190 ca         1 HBG      -0.154600
     22 C26         -6.0990     1.2150    -0.9820 c          1 HBG       0.609700
     23 C30         -3.9140     2.0610    -0.0190 ca         1 HBG      -0.075000
     24 C31         -2.7380     1.8220     0.6790 ca         1 HBG      -0.108500
     25 C32          2.2800    -2.3270     0.7870 ca         1 HBG      -0.085000
     26 N10         -0.2310    -0.4940     1.1360 n          1 HBG      -0.384800
     27 N14          2.4040     1.5030    -0.4300 ns         1 HBG      -0.503900
     28 N28         -6.5840     2.4750    -0.9610 ns         1 HBG      -0.378400
     29 O09         -0.8140    -2.4220     2.1660 o          1 HBG      -0.587100
     30 O13          1.9800     1.0220     1.7400 o          1 HBG      -0.595100
     31 O27         -6.6310     0.3010    -1.5870 o          1 HBG      -0.561100
     32 O29         -7.8070     2.7170    -1.5120 oh         1 HBG      -0.430100
     33 H1           5.0580    -3.4830     1.1730 hc         1 HBG       0.044033
     34 H2           5.2940    -3.1020    -0.5250 hc         1 HBG       0.044033
     35 H3           4.9070    -1.8220     0.6260 hc         1 HBG       0.044033
     36 H4           3.5420    -4.6330    -1.3290 ha         1 HBG       0.111000
     37 H5           0.9600    -6.3580    -1.4280 hc         1 HBG       0.044033
     38 H6           0.0340    -5.1920    -2.3590 hc         1 HBG       0.044033
     39 H7           1.7210    -5.5100    -2.7650 hc         1 HBG       0.044033
     40 H8          -0.5420    -3.7500    -0.4410 ha         1 HBG       0.128000
     41 H9          -0.2360     0.9140    -0.3830 h1         1 HBG       0.070700
     42 H10          0.7170    -0.4960    -0.7270 h1         1 HBG       0.070700
     43 H11          3.6020     2.7010     0.7490 h1         1 HBG       0.078700
     44 H12          3.7890     2.8340    -2.2870 hc         1 HBG       0.044200
     45 H13          2.9680     3.9860    -1.2420 hc         1 HBG       0.044200
     46 H14          5.2360     4.7870    -1.9150 hc         1 HBG       0.044200
     47 H15          5.1090     4.6060    -0.1780 hc         1 HBG       0.044200
     48 H16          6.3970     2.6160    -2.1040 hc         1 HBG       0.041200
     49 H17          7.2490     3.6460    -0.9680 hc         1 HBG       0.041200
     50 H18          7.0000     1.3160    -0.0880 hc         1 HBG       0.044200
     51 H19          6.1820     2.4770     0.9390 hc         1 HBG       0.044200
     52 H20          4.7250     0.5210     0.5700 hc         1 HBG       0.044200
     53 H21          4.8610     0.7020    -1.1730 hc         1 HBG       0.044200
     54 H22         -0.6770     1.2500     2.1660 h1         1 HBG       0.078200
     55 H23         -1.3540    -0.2080     2.8640 h1         1 HBG       0.078200
     56 H24         -3.1680    -1.4580     1.3690 ha         1 HBG       0.127500
     57 H25         -5.2390    -1.0490     0.1220 ha         1 HBG       0.125500
     58 H26         -4.0890     3.0500    -0.4220 ha         1 HBG       0.125500
     59 H27         -2.0330     2.6320     0.8220 ha         1 HBG       0.127500
     60 H28          2.5980    -1.5610     1.4830 ha         1 HBG       0.128000
     61 H29          2.1270     1.3220    -1.3830 hn         1 HBG       0.308500
     62 H30         -6.3210     3.1350    -0.2420 hn         1 HBG       0.333500
     63 H31         -7.6350     3.1220    -2.3710 ho         1 HBG       0.448000
@<TRIPOS>BOND
     1     1     2 1   
     2     1    33 1   
     3     1    34 1   
     4     1    35 1   
     5     2     3 ar  
     6     2    25 ar  
     7     3     4 ar  
     8     3    36 1   
     9     4     5 1   
    10     4     6 ar  
    11     5    37 1   
    12     5    38 1   
    13     5    39 1   
    14     6     7 ar  
    15     6    40 1   
    16     7     8 1   
    17     7    25 ar  
    18     8    26 1   
    19     8    29 2   
    20     9    10 1   
    21     9    26 1   
    22     9    41 1   
    23     9    42 1   
    24    10    27 1   
    25    10    30 2   
    26    11    12 1   
    27    11    16 1   
    28    11    27 1   
    29    11    43 1   
    30    12    13 1   
    31    12    44 1   
    32    12    45 1   
    33    13    14 1   
    34    13    46 1   
    35    13    47 1   
    36    14    15 1   
    37    14    48 1   
    38    14    49 1   
    39    15    16 1   
    40    15    50 1   
    41    15    51 1   
    42    16    52 1   
    43    16    53 1   
    44    17    18 1   
    45    17    26 1   
    46    17    54 1   
    47    17    55 1   
    48    18    19 ar  
    49    18    24 ar  
    50    19    20 ar  
    51    19    56 1   
    52    20    21 ar  
    53    20    57 1   
    54    21    22 1   
    55    21    23 ar  
    56    22    28 1   
    57    22    31 2   
    58    23    24 ar  
    59    23    58 1   
    60    24    59 1   
    61    25    60 1   
    62    27    61 1   
    63    28    32 1   
    64    28    62 1   
    65    32    63 1   
@<TRIPOS>SUBSTRUCTURE
     1 HBG         1 TEMP              0 ****  ****    0 ROOT
