@<TRIPOS>MOLECULE
HBG
   63    65     1     0     0
SMALL
No Charge or Current Charge


@<TRIPOS>ATOM
      1 C01          4.7170    -2.5750     0.1530 c3         1 HBG      -0.047800
      2 C02          3.3110    -3.1410     0.0190 ca         1 HBG      -0.077800
      3 C03          3.0880    -4.3190    -0.7170 ca         1 HBG      -0.099000
      4 C04          1.7920    -4.8510    -0.8320 ca         1 HBG      -0.077800
      5 C05          1.5580    -6.1360    -1.6120 c3         1 HBG      -0.047800
      6 C06          0.7120    -4.1910    -0.2170 ca         1 HBG      -0.085000
      7 C07          0.9110    -2.9900     0.4970 ca         1 HBG      -0.142600
      8 C08         -0.2740    -2.3010     1.1450 c          1 HBG       0.624700
      9 C11          0.3590    -0.0570     0.1460 c3         1 HBG       0.016000
     10 C12          1.5050     0.8700     0.6040 c          1 HBG       0.577100
     11 C15          3.3660     2.3410    -0.2670 c6         1 HBG       0.110700
     12 C16          3.5070     3.2890    -1.4860 c6         1 HBG      -0.089900
     13 C17          4.7770     4.1700    -1.3740 c6         1 HBG      -0.071900
     14 C18          6.0480     3.2990    -1.2180 c6         1 HBG      -0.077400
     15 C19          5.9170     2.3320    -0.0160 c6         1 HBG      -0.071900
     16 C20          4.6400     1.4630    -0.1350 c6         1 HBG      -0.089900
     17 C21         -1.2880    -0.1910     2.0650 c3         1 HBG       0.137300
     18 C22         -2.4880     0.3520     1.2940 ca         1 HBG      -0.089300
     19 C23         -3.4930    -0.5170     0.8350 ca         1 HBG      -0.108500
     20 C24         -4.5940    -0.0180     0.1190 ca         1 HBG      -0.075000
     21 C25         -4.7170     1.3640    -0.1530 ca         1 HBG      -0.154600
     22 C26         -5.9200     1.8670    -0.9300 c          1 HBG       0.609700
     23 C30         -3.6990     2.2330     0.3120 ca         1 HBG      -0.075000
     24 C31         -2.5990     1.7290     1.0280 ca         1 HBG      -0.108500
     25 C32          2.2260    -2.4890     0.6300 ca         1 HBG      -0.085000
     26 N10         -0.2840    -0.8850     1.2180 n          1 HBG      -0.384800
     27 N14          2.1800     1.4930    -0.4220 ns         1 HBG      -0.503900
     28 N28         -6.0180     3.2450    -1.1090 ns         1 HBG      -0.378400
     29 O09         -1.1620    -2.9690     1.6630 o          1 HBG      -0.587100
     30 O13          1.8120     1.0400     1.7770 o          1 HBG      -0.595100
     31 O27         -6.7610     1.1030    -1.3900 o          1 HBG      -0.561100
     32 O29         -7.2360     3.8490    -1.6120 oh         1 HBG      -0.430100
     33 H1           5.4700    -3.3730     0.1610 hc         1 HBG       0.044033
     34 H2           4.9490    -1.9050    -0.6830 hc         1 HBG       0.044033
     35 H3           4.8340    -2.0040     1.0820 hc         1 HBG       0.044033
     36 H4           3.9260    -4.8260    -1.1910 ha         1 HBG       0.111000
     37 H5           1.6240    -7.0100    -0.9540 hc         1 HBG       0.044033
     38 H6           0.5670    -6.1440    -2.0820 hc         1 HBG       0.044033
     39 H7           2.3000    -6.2610    -2.4100 hc         1 HBG       0.044033
     40 H8          -0.2910    -4.6040    -0.3070 ha         1 HBG       0.128000
     41 H9          -0.3990     0.5830    -0.3220 h1         1 HBG       0.070700
     42 H10          0.7460    -0.6990    -0.6530 h1         1 HBG       0.070700
     43 H11          3.2500     2.9490     0.6440 h1         1 HBG       0.078700
     44 H12          3.5480     2.7030    -2.4150 hc         1 HBG       0.044200
     45 H13          2.6200     3.9320    -1.5610 hc         1 HBG       0.044200
     46 H14          4.8690     4.8070    -2.2650 hc         1 HBG       0.044200
     47 H15          4.6830     4.8470    -0.5140 hc         1 HBG       0.044200
     48 H16          6.2180     2.7240    -2.1390 hc         1 HBG       0.041200
     49 H17          6.9280     3.9430    -1.0850 hc         1 HBG       0.041200
     50 H18          6.8040     1.6850     0.0400 hc         1 HBG       0.044200
     51 H19          5.8890     2.9060     0.9210 hc         1 HBG       0.044200
     52 H20          4.5570     0.8140     0.7470 hc         1 HBG       0.044200
     53 H21          4.7270     0.7970    -1.0040 hc         1 HBG       0.044200
     54 H22         -0.7880     0.6390     2.5810 h1         1 HBG       0.078200
     55 H23         -1.6450    -0.8650     2.8540 h1         1 HBG       0.078200
     56 H24         -3.4230    -1.5840     1.0320 ha         1 HBG       0.127500
     57 H25         -5.3560    -0.7150    -0.2230 ha         1 HBG       0.125500
     58 H26         -3.7380     3.3030     0.1240 ha         1 HBG       0.125500
     59 H27         -1.8280     2.4150     1.3730 ha         1 HBG       0.127500
     60 H28          2.4140    -1.6020     1.2290 ha         1 HBG       0.128000
     61 H29          1.8540     1.3010    -1.3620 hn         1 HBG       0.308500
     62 H30         -5.3990     3.8590    -0.5850 hn         1 HBG       0.333500
     63 H31         -6.9200     4.4400    -2.3370 ho         1 HBG       0.448000
@<TRIPOS>BOND
     1     1     2 1   
     2     1    33 1   
     3     1    34 1   
     4     1    35 1   
     5     2     3 ar  
     6     2    25 ar  
     7     3     4 ar  
     8     3    36 1   
     9     4     5 1   
    10     4     6 ar  
    11     5    37 1   
    12     5    38 1   
    13     5    39 1   
    14     6     7 ar  
    15     6    40 1   
    16     7     8 1   
    17     7    25 ar  
    18     8    26 1   
    19     8    29 2   
    20     9    10 1   
    21     9    26 1   
    22     9    41 1   
    23     9    42 1   
    24    10    27 1   
    25    10    30 2   
    26    11    12 1   
    27    11    16 1   
    28    11    27 1   
    29    11    43 1   
    30    12    13 1   
    31    12    44 1   
    32    12    45 1   
    33    13    14 1   
    34    13    46 1   
    35    13    47 1   
    36    14    15 1   
    37    14    48 1   
    38    14    49 1   
    39    15    16 1   
    40    15    50 1   
    41    15    51 1   
    42    16    52 1   
    43    16    53 1   
    44    17    18 1   
    45    17    26 1   
    46    17    54 1   
    47    17    55 1   
    48    18    19 ar  
    49    18    24 ar  
    50    19    20 ar  
    51    19    56 1   
    52    20    21 ar  
    53    20    57 1   
    54    21    22 1   
    55    21    23 ar  
    56    22    28 1   
    57    22    31 2   
    58    23    24 ar  
    59    23    58 1   
    60    24    59 1   
    61    25    60 1   
    62    27    61 1   
    63    28    32 1   
    64    28    62 1   
    65    32    63 1   
@<TRIPOS>SUBSTRUCTURE
     1 HBG         1 TEMP              0 ****  ****    0 ROOT
