@<TRIPOS>MOLECULE
HBH
   81    83     1     0     0
SMALL
No Charge or Current Charge


@<TRIPOS>ATOM
      1 C1           5.3810    -0.8420    14.9330 c3         1 HBH       0.110700
      2 C2           6.8920    -0.4520    14.8640 c3         1 HBH      -0.047100
      3 C3           7.1830     0.4520    13.6710 ca         1 HBH      -0.121300
      4 C7           7.2480     0.7600    11.2540 ca         1 HBH      -0.162000
      5 C8           7.2330    -0.0890    12.3720 ca         1 HBH      -0.074500
      6 C10          6.4700     2.6610     9.1320 c3         1 HBH       0.169600
      7 C11          5.4100     3.7290     8.7800 c3         1 HBH      -0.092400
      8 C12          4.0170     3.5120     9.4400 c3         1 HBH      -0.150400
      9 C13          4.0320     3.4850    10.9770 c          1 HBH       0.597100
     10 C16          3.5860     1.9950    12.9980 c3         1 HBH       0.042700
     11 C20          4.0540     0.5360    13.2800 c          1 HBH       0.583100
     12 N26          5.8850    -3.7750    15.6850 n3         1 HBH      -0.772500
     13 C27          4.5770    -4.3290    15.2430 c3         1 HBH       0.223800
     14 C30          3.3290    -6.0660    11.9140 c3         1 HBH      -0.087600
     15 C31          2.2720    -6.2000    14.2270 c3         1 HBH      -0.087600
     16 C35          8.4090    -4.0430    16.7940 ca         1 HBH      -0.308500
     17 C4           7.2350     1.8480    13.8460 ca         1 HBH      -0.074500
     18 C5           7.2500     2.6950    12.7280 ca         1 HBH      -0.162000
     19 C6           7.2080     2.1590    11.4340 ca         1 HBH       0.140100
     20 O9           7.0710     3.0400    10.3850 os         1 HBH      -0.359100
     21 O14          4.2840     4.4730    11.6500 o          1 HBH      -0.584100
     22 N15          3.6710     2.2780    11.5440 ns         1 HBH      -0.510900
     23 C17          2.1520     2.2320    13.5390 c3         1 HBH      -0.171400
     24 C18          1.7390     3.7020    13.4910 c          1 HBH       0.605100
     25 O19          2.0870     4.5180    14.3270 o          1 HBH      -0.600100
     26 N19          0.9170     4.0610    12.4810 nt         1 HBH      -0.604000
     27 O21          4.0230    -0.3450    12.4290 o          1 HBH      -0.621100
     28 N22          4.5360     0.3080    14.5550 ns         1 HBH      -0.477900
     29 C23          4.9310    -1.4410    16.3010 c3         1 HBH       0.159300
     30 O24          5.0080    -0.4310    17.3310 oh         1 HBH      -0.664000
     31 C25          5.7510    -2.7030    16.7190 c3         1 HBH       0.187800
     32 C28          4.6040    -5.1380    13.9230 c3         1 HBH      -0.090400
     33 C29          3.2050    -5.3880    13.2970 c3         1 HBH      -0.058700
     34 S32          7.0460    -4.9790    16.0690 sy         1 HBH       1.202600
     35 O33          7.5320    -5.5060    14.7890 o          1 HBH      -0.542000
     36 O34          6.4460    -5.8380    17.0950 o          1 HBH      -0.542000
     37 C36          9.2870    -3.3240    15.9570 ca         1 HBH      -0.018000
     38 C37         10.3380    -2.5780    16.5160 ca         1 HBH      -0.129500
     39 C38         10.5210    -2.5480    17.9090 ca         1 HBH      -0.057000
     40 C39          9.6500    -3.2670    18.7450 ca         1 HBH      -0.129500
     41 C40          8.5950    -4.0150    18.1930 ca         1 HBH      -0.018000
     42 H1           5.2260    -1.6260    14.1790 h1         1 HBH       0.096700
     43 H21          7.4990    -1.3620    14.8080 hc         1 HBH       0.071700
     44 H22A         7.1820     0.0540    15.7920 hc         1 HBH       0.071700
     45 H7           7.2540     0.3200    10.2610 ha         1 HBH       0.123500
     46 H8           7.1900    -1.1670    12.2280 ha         1 HBH       0.117500
     47 H101         7.2370     2.6260     8.3470 h1         1 HBH       0.050200
     48 H102         5.9770     1.6820     9.1750 h1         1 HBH       0.050200
     49 H111         5.2750     3.7280     7.6920 hc         1 HBH       0.064700
     50 H112         5.7940     4.7240     9.0400 hc         1 HBH       0.064700
     51 H121         3.5960     2.5740     9.0580 hc         1 HBH       0.055700
     52 H122         3.3670     4.3380     9.1260 hc         1 HBH       0.055700
     53 H16          4.2860     2.6560    13.5290 h1         1 HBH       0.103700
     54 H271         3.8690    -3.5100    15.0700 h1         1 HBH       0.043700
     55 H272         4.1420    -4.9510    16.0370 h1         1 HBH       0.043700
     56 H301         2.3430    -6.1890    11.4520 hc         1 HBH       0.034533
     57 H302         3.9440    -5.4600    11.2380 hc         1 HBH       0.034533
     58 H303         3.7930    -7.0560    12.0050 hc         1 HBH       0.034533
     59 H311         2.7140    -7.1730    14.4710 hc         1 HBH       0.034533
     60 H312         2.0780    -5.6630    15.1630 hc         1 HBH       0.034533
     61 H313         1.3040    -6.3770    13.7430 hc         1 HBH       0.034533
     62 H4           7.1920     2.2790    14.8450 ha         1 HBH       0.117500
     63 H5           7.2280     3.7730    12.8650 ha         1 HBH       0.123500
     64 H15          3.5060     1.5080    10.9050 hn         1 HBH       0.329500
     65 H171         2.1140     1.9040    14.5840 hc         1 HBH       0.071700
     66 H172         1.4620     1.6300    12.9350 hc         1 HBH       0.071700
     67 H191         0.6110     5.0200    12.4130 hn         1 HBH       0.314000
     68 H192         0.6250     3.3780    11.7990 hn         1 HBH       0.314000
     69 H22          4.4870     1.0780    15.2120 hn         1 HBH       0.326500
     70 H23          3.8810    -1.7420    16.1890 h1         1 HBH       0.049700
     71 H24          4.4670    -0.7420    18.0900 ho         1 HBH       0.444000
     72 H251         6.7350    -2.3170    17.0060 h1         1 HBH       0.059200
     73 H252         5.3010    -3.1230    17.6290 h1         1 HBH       0.059200
     74 H281         5.0890    -6.1060    14.0910 hc         1 HBH       0.065200
     75 H282         5.2200    -4.5900    13.2000 hc         1 HBH       0.065200
     76 H29          2.7340    -4.4100    13.1330 hc         1 HBH       0.035700
     77 H36          9.1530    -3.3360    14.8760 ha         1 HBH       0.133500
     78 H37         11.0110    -2.0210    15.8680 ha         1 HBH       0.120000
     79 H38         11.3350    -1.9700    18.3390 ha         1 HBH       0.118000
     80 H39          9.7910    -3.2440    19.8230 ha         1 HBH       0.120000
     81 H40          7.9260    -4.5630    18.8550 ha         1 HBH       0.133500
@<TRIPOS>BOND
     1     1     2 1   
     2     1    28 1   
     3     1    29 1   
     4     1    42 1   
     5     2     3 1   
     6     2    43 1   
     7     2    44 1   
     8     3     5 ar  
     9     3    17 ar  
    10     4     5 ar  
    11     4    19 ar  
    12     4    45 1   
    13     5    46 1   
    14     6     7 1   
    15     6    20 1   
    16     6    47 1   
    17     6    48 1   
    18     7     8 1   
    19     7    49 1   
    20     7    50 1   
    21     8     9 1   
    22     8    51 1   
    23     8    52 1   
    24     9    21 2   
    25     9    22 1   
    26    10    11 1   
    27    10    22 1   
    28    10    23 1   
    29    10    53 1   
    30    11    27 2   
    31    11    28 1   
    32    12    13 1   
    33    12    31 1   
    34    12    34 1   
    35    13    32 1   
    36    13    54 1   
    37    13    55 1   
    38    14    33 1   
    39    14    56 1   
    40    14    57 1   
    41    14    58 1   
    42    15    33 1   
    43    15    59 1   
    44    15    60 1   
    45    15    61 1   
    46    16    34 1   
    47    16    37 ar  
    48    16    41 ar  
    49    17    18 ar  
    50    17    62 1   
    51    18    19 ar  
    52    18    63 1   
    53    19    20 1   
    54    22    64 1   
    55    23    24 1   
    56    23    65 1   
    57    23    66 1   
    58    24    25 2   
    59    24    26 1   
    60    26    67 1   
    61    26    68 1   
    62    28    69 1   
    63    29    30 1   
    64    29    31 1   
    65    29    70 1   
    66    30    71 1   
    67    31    72 1   
    68    31    73 1   
    69    32    33 1   
    70    32    74 1   
    71    32    75 1   
    72    33    76 1   
    73    34    35 2   
    74    34    36 2   
    75    37    38 ar  
    76    37    77 1   
    77    38    39 ar  
    78    38    78 1   
    79    39    40 ar  
    80    39    79 1   
    81    40    41 ar  
    82    40    80 1   
    83    41    81 1   
@<TRIPOS>SUBSTRUCTURE
     1 HBH         1 TEMP              0 ****  ****    0 ROOT
