@<TRIPOS>MOLECULE
HBH
   81    83     1     0     0
SMALL
abcg2


@<TRIPOS>ATOM
      1 C1           6.0100    -0.2270    14.6630 c3         1 HBH       0.110700
      2 C2           7.4060     0.3840    14.3810 c3         1 HBH      -0.047100
      3 C3           7.4320     1.1390    13.0780 ca         1 HBH      -0.121300
      4 C7           7.1880     1.1980    10.6570 ca         1 HBH      -0.162000
      5 C8           7.3160     0.4910    11.8500 ca         1 HBH      -0.074500
      6 C10          6.5260     2.9280     8.3380 c3         1 HBH       0.169600
      7 C11          5.0570     3.2910     8.1640 c3         1 HBH      -0.092400
      8 C12          4.0490     2.4180     8.9120 c3         1 HBH      -0.150400
      9 C13          3.8840     2.7180    10.3920 c          1 HBH       0.597100
     10 C16          3.4370     1.6490    12.5860 c3         1 HBH       0.042700
     11 C20          4.2290     0.4570    13.1330 c          1 HBH       0.583100
     12 N26          6.4360    -3.0080    15.7810 n3         1 HBH      -0.772500
     13 C27          5.2050    -3.7460    16.1350 c3         1 HBH       0.223800
     14 C30          1.6990    -3.9170    14.4730 c3         1 HBH      -0.087600
     15 C31          2.9130    -5.7980    15.6240 c3         1 HBH      -0.087600
     16 C35          8.4300    -4.7170    16.5420 ca         1 HBH      -0.308500
     17 C4           7.4520     2.5350    13.0720 ca         1 HBH      -0.074500
     18 C5           7.3320     3.2550    11.8950 ca         1 HBH      -0.162000
     19 C6           7.1790     2.5920    10.6770 ca         1 HBH       0.140100
     20 O9           7.0660     3.3990     9.5820 os         1 HBH      -0.359100
     21 O14          3.9250     3.8590    10.8490 o          1 HBH      -0.584100
     22 N15          3.6140     1.6330    11.1480 ns         1 HBH      -0.510900
     23 C17          1.9580     1.5210    13.0010 c3         1 HBH      -0.171400
     24 C18          1.1690     2.7480    12.5830 c          1 HBH       0.605100
     25 O19          1.1900     3.7810    13.2520 o          1 HBH      -0.600100
     26 N19          0.4720     2.6360    11.4390 nt         1 HBH      -0.604000
     27 O21          4.1730    -0.6270    12.5550 o          1 HBH      -0.621100
     28 N22          4.9580     0.6870    14.2360 ns         1 HBH      -0.477900
     29 C23          5.8040    -0.6360    16.1180 c3         1 HBH       0.159300
     30 O24          6.0460     0.5010    16.9470 oh         1 HBH      -0.664000
     31 C25          6.7220    -1.7870    16.5410 c3         1 HBH       0.187800
     32 C28          4.1180    -3.6260    15.0730 c3         1 HBH      -0.090400
     33 C29          2.7920    -4.2790    15.4800 c3         1 HBH      -0.058700
     34 S32          7.6870    -3.8670    15.1740 sy         1 HBH       1.202600
     35 O33          8.6520    -2.9240    14.6570 o          1 HBH      -0.542000
     36 O34          7.1270    -4.8620    14.2900 o          1 HBH      -0.542000
     37 C36          9.3520    -4.0450    17.3430 ca         1 HBH      -0.018000
     38 C37          9.8770    -4.6890    18.4560 ca         1 HBH      -0.129500
     39 C38          9.4830    -5.9890    18.7640 ca         1 HBH      -0.057000
     40 C39          8.5650    -6.6520    17.9560 ca         1 HBH      -0.129500
     41 C40          8.0320    -6.0180    16.8390 ca         1 HBH      -0.018000
     42 H1           5.8880    -1.1180    14.0530 h1         1 HBH       0.096700
     43 H21          8.1310    -0.4300    14.3780 hc         1 HBH       0.071700
     44 H22A         7.6710     1.0620    15.1930 hc         1 HBH       0.071700
     45 H7           7.0840     0.6500     9.7320 ha         1 HBH       0.123500
     46 H8           7.2940    -0.5920    11.8180 ha         1 HBH       0.117500
     47 H101         7.1130     3.4360     7.5720 h1         1 HBH       0.050200
     48 H102         6.6830     1.8560     8.2190 h1         1 HBH       0.050200
     49 H111         4.8430     3.2040     7.0950 hc         1 HBH       0.064700
     50 H112         4.9140     4.3400     8.4300 hc         1 HBH       0.064700
     51 H121         4.2820     1.3610     8.7670 hc         1 HBH       0.055700
     52 H122         3.0580     2.5810     8.4760 hc         1 HBH       0.055700
     53 H16          3.8410     2.5860    12.9640 h1         1 HBH       0.103700
     54 H271         4.8520    -3.3380    17.0840 h1         1 HBH       0.043700
     55 H272         5.4500    -4.7910    16.3180 h1         1 HBH       0.043700
     56 H301         0.7380    -4.3480    14.7660 hc         1 HBH       0.034533
     57 H302         1.5770    -2.8350    14.3950 hc         1 HBH       0.034533
     58 H303         1.9490    -4.3010    13.4800 hc         1 HBH       0.034533
     59 H311         3.2360    -6.2460    14.6800 hc         1 HBH       0.034533
     60 H312         3.6340    -6.0830    16.3930 hc         1 HBH       0.034533
     61 H313         1.9500    -6.2380    15.8930 hc         1 HBH       0.034533
     62 H4           7.5350     3.0680    14.0120 ha         1 HBH       0.117500
     63 H5           7.3290     4.3380    11.9040 ha         1 HBH       0.123500
     64 H15          3.6500     0.7190    10.7230 hn         1 HBH       0.329500
     65 H171         1.9010     1.4470    14.0870 hc         1 HBH       0.071700
     66 H172         1.5450     0.6120    12.5640 hc         1 HBH       0.071700
     67 H191        -0.0270     3.4350    11.0780 hn         1 HBH       0.314000
     68 H192         0.4980     1.7970    10.8860 hn         1 HBH       0.314000
     69 H22          4.9880     1.6290    14.5950 hn         1 HBH       0.326500
     70 H23          4.7620    -0.9480    16.2270 h1         1 HBH       0.049700
     71 H24          5.6570     0.3360    17.8140 ho         1 HBH       0.444000
     72 H251         7.7570    -1.4980    16.3830 h1         1 HBH       0.059200
     73 H252         6.5830    -1.9740    17.6100 h1         1 HBH       0.059200
     74 H281         4.4780    -4.0730    14.1420 hc         1 HBH       0.065200
     75 H282         3.9430    -2.5680    14.8660 hc         1 HBH       0.065200
     76 H29          2.5030    -3.8660    16.4540 hc         1 HBH       0.035700
     77 H36          9.6610    -3.0400    17.0950 ha         1 HBH       0.133500
     78 H37         10.5970    -4.1760    19.0810 ha         1 HBH       0.120000
     79 H38          9.8960    -6.4860    19.6320 ha         1 HBH       0.118000
     80 H39          8.2640    -7.6650    18.1900 ha         1 HBH       0.120000
     81 H40          7.3260    -6.5290    16.2000 ha         1 HBH       0.133500
@<TRIPOS>BOND
     1     1     2 1   
     2     1    28 1   
     3     1    29 1   
     4     1    42 1   
     5     2     3 1   
     6     2    43 1   
     7     2    44 1   
     8     3     5 ar  
     9     3    17 ar  
    10     4     5 ar  
    11     4    19 ar  
    12     4    45 1   
    13     5    46 1   
    14     6     7 1   
    15     6    20 1   
    16     6    47 1   
    17     6    48 1   
    18     7     8 1   
    19     7    49 1   
    20     7    50 1   
    21     8     9 1   
    22     8    51 1   
    23     8    52 1   
    24     9    21 2   
    25     9    22 1   
    26    10    11 1   
    27    10    22 1   
    28    10    23 1   
    29    10    53 1   
    30    11    27 2   
    31    11    28 1   
    32    12    13 1   
    33    12    31 1   
    34    12    34 1   
    35    13    32 1   
    36    13    54 1   
    37    13    55 1   
    38    14    33 1   
    39    14    56 1   
    40    14    57 1   
    41    14    58 1   
    42    15    33 1   
    43    15    59 1   
    44    15    60 1   
    45    15    61 1   
    46    16    34 1   
    47    16    37 ar  
    48    16    41 ar  
    49    17    18 ar  
    50    17    62 1   
    51    18    19 ar  
    52    18    63 1   
    53    19    20 1   
    54    22    64 1   
    55    23    24 1   
    56    23    65 1   
    57    23    66 1   
    58    24    25 2   
    59    24    26 1   
    60    26    67 1   
    61    26    68 1   
    62    28    69 1   
    63    29    30 1   
    64    29    31 1   
    65    29    70 1   
    66    30    71 1   
    67    31    72 1   
    68    31    73 1   
    69    32    33 1   
    70    32    74 1   
    71    32    75 1   
    72    33    76 1   
    73    34    35 2   
    74    34    36 2   
    75    37    38 ar  
    76    37    77 1   
    77    38    39 ar  
    78    38    78 1   
    79    39    40 ar  
    80    39    79 1   
    81    40    41 ar  
    82    40    80 1   
    83    41    81 1   
@<TRIPOS>SUBSTRUCTURE
     1 HBH         1 TEMP              0 ****  ****    0 ROOT
