@<TRIPOS>MOLECULE
HBI
   30    31     1     0     0
SMALL
No Charge or Current Charge


@<TRIPOS>ATOM
      1 N1          -1.0220     0.4970    -2.8250 nc         1 HBI      -0.776300
      2 N2          -0.2440     0.3830    -4.8780 nv         1 HBI      -1.054200
      3 C2          -0.0670     0.1010    -3.6050 cd         1 HBI       0.771800
      4 N3           1.0390    -0.5480    -3.2630 ns         1 HBI      -0.453400
      5 C4           1.3230    -0.8870    -1.9890 c          1 HBI       0.620200
      6 O4           2.3540    -1.4770    -1.7030 o          1 HBI      -0.527000
      7 C4A          0.2880    -0.4790    -1.0030 cd         1 HBI      -0.218600
      8 C8A         -0.8200     0.1860    -1.5190 cc         1 HBI       0.458600
      9 N8          -1.8510     0.6270    -0.7670 nu         1 HBI      -0.790200
     10 C7          -1.7940     0.5850     0.7150 c6         1 HBI       0.155500
     11 C6          -0.5820    -0.2340     1.2130 c2         1 HBI       0.288300
     12 N5           0.3360    -0.7050     0.3840 nf         1 HBI      -0.439300
     13 C9          -0.4990    -0.5270     2.7140 c3         1 HBI       0.118000
     14 O9          -0.0980    -1.9000     2.9400 oh         1 HBI      -0.659000
     15 C10          0.4740     0.4520     3.4410 c3         1 HBI       0.148300
     16 O10          0.0560     1.8070     3.2180 oh         1 HBI      -0.631000
     17 C11          0.5460     0.2250     4.9670 c3         1 HBI      -0.125100
     18 HN21        -1.1840     0.7050    -5.0700 hn         1 HBI       0.510000
     19 HN22         0.1190    -0.2840    -5.5470 hn         1 HBI       0.510000
     20 H3           1.7260    -0.7860    -3.9590 hn         1 HBI       0.324500
     21 H8          -2.4920     1.2470    -1.2590 hn         1 HBI       0.501000
     22 H71         -2.7160     0.1380     1.1140 h1         1 HBI       0.052200
     23 H72         -1.7270     1.6060     1.1190 h1         1 HBI       0.052200
     24 H9          -1.4970    -0.3720     3.1470 h1         1 HBI       0.068700
     25 HO9          0.5040    -2.1360     2.1970 ho         1 HBI       0.447000
     26 H10          1.4810     0.3000     3.0240 h1         1 HBI       0.093700
     27 HO1          0.6900     2.3890     3.6910 ho         1 HBI       0.428000
     28 H111         1.2290     0.9440     5.4360 hc         1 HBI       0.043033
     29 H112        -0.4430     0.3380     5.4270 hc         1 HBI       0.043033
     30 H113         0.9170    -0.7820     5.1960 hc         1 HBI       0.043033
@<TRIPOS>BOND
     1     1     3 2   
     2     1     8 1   
     3     2     3 1   
     4     2    18 1   
     5     2    19 1   
     6     3     4 1   
     7     4     5 1   
     8     4    20 1   
     9     5     6 2   
    10     5     7 1   
    11     7     8 2   
    12     7    12 1   
    13     8     9 1   
    14     9    10 1   
    15     9    21 1   
    16    10    11 1   
    17    10    22 1   
    18    10    23 1   
    19    11    12 2   
    20    11    13 1   
    21    13    14 1   
    22    13    15 1   
    23    13    24 1   
    24    14    25 1   
    25    15    16 1   
    26    15    17 1   
    27    15    26 1   
    28    16    27 1   
    29    17    28 1   
    30    17    29 1   
    31    17    30 1   
@<TRIPOS>SUBSTRUCTURE
     1 HBI         1 TEMP              0 ****  ****    0 ROOT
