@<TRIPOS>MOLECULE
HBI
   30    31     1     0     0
SMALL
abcg2


@<TRIPOS>ATOM
      1 N1          -1.1150     0.3920    -2.8280 nc         1 HBI      -0.776300
      2 N2          -0.1490     0.2790    -4.8960 nv         1 HBI      -1.054200
      3 C2          -0.0710     0.1180    -3.5750 cd         1 HBI       0.771800
      4 N3           1.1020    -0.3180    -3.0600 ns         1 HBI      -0.453400
      5 C4           1.3510    -0.4680    -1.6900 c          1 HBI       0.620200
      6 O4           2.4660    -0.8170    -1.3210 o          1 HBI      -0.527000
      7 C4A          0.2170    -0.1870    -0.8830 cd         1 HBI      -0.218600
      8 C8A         -0.9670     0.2180    -1.5040 cc         1 HBI       0.458600
      9 N8          -2.0160     0.5070    -0.7200 nu         1 HBI      -0.790200
     10 C7          -2.0770    -0.0120     0.6280 c6         1 HBI       0.155500
     11 C6          -0.6830    -0.0020     1.2160 c2         1 HBI       0.288300
     12 N5           0.3530    -0.1450     0.4950 nf         1 HBI      -0.439300
     13 C9          -0.5970     0.0610     2.7200 c3         1 HBI       0.118000
     14 O9          -1.2800    -1.0570     3.2590 oh         1 HBI      -0.659000
     15 C10          0.8300     0.2080     3.2590 c3         1 HBI       0.148300
     16 O10          1.3780     1.4380     2.8300 oh         1 HBI      -0.631000
     17 C11          0.8800     0.0750     4.7730 c3         1 HBI      -0.125100
     18 HN21        -1.0350     0.5230    -5.3040 hn         1 HBI       0.510000
     19 HN22         0.5860    -0.0150    -5.5160 hn         1 HBI       0.510000
     20 H3           1.8750    -0.5160    -3.6830 hn         1 HBI       0.324500
     21 H8          -2.8780     0.7710    -1.1710 hn         1 HBI       0.501000
     22 H71         -2.4810    -1.0340     0.6480 h1         1 HBI       0.052200
     23 H72         -2.7540     0.6080     1.2170 h1         1 HBI       0.052200
     24 H9          -1.1730     0.9320     3.0610 h1         1 HBI       0.068700
     25 HO9         -0.8190    -1.8570     2.9810 ho         1 HBI       0.447000
     26 H10          1.4570    -0.5670     2.8090 h1         1 HBI       0.093700
     27 HO1          0.9450     2.1460     3.3180 ho         1 HBI       0.428000
     28 H111         1.8970     0.2470     5.1290 hc         1 HBI       0.043033
     29 H112         0.2250     0.8040     5.2570 hc         1 HBI       0.043033
     30 H113         0.5780    -0.9160     5.1060 hc         1 HBI       0.043033
@<TRIPOS>BOND
     1     1     3 2   
     2     1     8 1   
     3     2     3 1   
     4     2    18 1   
     5     2    19 1   
     6     3     4 1   
     7     4     5 1   
     8     4    20 1   
     9     5     6 2   
    10     5     7 1   
    11     7     8 2   
    12     7    12 1   
    13     8     9 1   
    14     9    10 1   
    15     9    21 1   
    16    10    11 1   
    17    10    22 1   
    18    10    23 1   
    19    11    12 2   
    20    11    13 1   
    21    13    14 1   
    22    13    15 1   
    23    13    24 1   
    24    14    25 1   
    25    15    16 1   
    26    15    17 1   
    27    15    26 1   
    28    16    27 1   
    29    17    28 1   
    30    17    29 1   
    31    17    30 1   
@<TRIPOS>SUBSTRUCTURE
     1 HBI         1 TEMP              0 ****  ****    0 ROOT
