@<TRIPOS>MOLECULE
HBJ
   62    64     1     0     0
SMALL
No Charge or Current Charge


@<TRIPOS>ATOM
      1 C16          4.5230    -2.0160     0.5000 c          1 HBJ       0.603700
      2 C15          3.6360    -0.7850     0.5440 ca         1 HBJ      -0.147600
      3 C14          3.2570    -0.0830    -0.6260 ca         1 HBJ      -0.074000
      4 C13          2.4130     1.0390    -0.5460 ca         1 HBJ      -0.106500
      5 C12          1.9270     1.4820     0.6960 ca         1 HBJ      -0.091300
      6 C11          0.9420     2.6480     0.7690 c3         1 HBJ       0.133300
      7 C02          1.7600    -5.0440    -0.3160 ca         1 HBJ      -0.094300
      8 C03          1.2590    -4.8450     0.9830 ca         1 HBJ      -0.089000
      9 C04          0.6290    -3.6360     1.3220 ca         1 HBJ      -0.156500
     10 C05          0.4860    -2.6090     0.3710 ca         1 HBJ      -0.029000
     11 C07         -0.4860    -0.2470     0.1030 c          1 HBJ       0.597100
     12 C09         -0.9090     0.9240     1.0240 c3         1 HBJ       0.022000
     13 C20          3.1670    -0.3120     1.7910 ca         1 HBJ      -0.074000
     14 C21          2.3240     0.8100     1.8660 ca         1 HBJ      -0.106500
     15 C22         -1.4350     3.3560     0.5590 c          1 HBJ       0.628700
     16 C24         -2.8630     3.0760     0.1480 ca         1 HBJ      -0.224600
     17 C25         -3.1830     2.1060    -0.8250 ca         1 HBJ      -0.022000
     18 C26         -4.5190     1.8830    -1.1950 ca         1 HBJ      -0.212000
     19 C27         -5.5630     2.6290    -0.6190 ca         1 HBJ       0.364000
     20 C29         -7.3660     1.0700    -1.4690 c3         1 HBJ       0.221100
     21 C30         -7.9270     3.4770    -0.9330 c3         1 HBJ       0.221100
     22 C31         -5.2390     3.6160     0.3300 ca         1 HBJ      -0.212000
     23 C32         -3.9050     3.8440     0.7050 ca         1 HBJ      -0.022000
     24 C33          0.9970    -2.8080    -0.9300 ca         1 HBJ      -0.156500
     25 C34          1.6270    -4.0180    -1.2690 ca         1 HBJ      -0.089000
     26 N06         -0.1210    -1.3950     0.7950 ns         1 HBJ      -0.139000
     27 N10         -0.4950     2.2960     0.5710 n          1 HBJ      -0.391800
     28 N18          4.8640    -2.4950    -0.7630 ns         1 HBJ      -0.365400
     29 N28         -6.9110     2.4000    -0.9960 nh         1 HBJ      -0.830400
     30 O08         -0.4890    -0.1540    -1.1210 o          1 HBJ      -0.577100
     31 O17          4.9420    -2.5500     1.5210 o          1 HBJ      -0.559100
     32 O19          5.5130    -3.7820    -0.9270 oh         1 HBJ      -0.441100
     33 O23         -1.0860     4.5050     0.8000 o          1 HBJ      -0.593100
     34 H1           3.6000    -0.3940    -1.6090 ha         1 HBJ       0.128500
     35 H2           2.1140     1.5500    -1.4590 ha         1 HBJ       0.125500
     36 H3           1.0480     3.1390     1.7460 h1         1 HBJ       0.065700
     37 H4           1.2240     3.3880     0.0080 h1         1 HBJ       0.065700
     38 H5           3.5320    -6.2810    -0.4880 hc         1 HBJ       0.044367
     39 H6           2.0600    -7.1880    -0.0990 hc         1 HBJ       0.044367
     40 H7           2.3190    -6.5890    -1.7420 hc         1 HBJ       0.044367
     41 H8           1.3620    -5.6260     1.7330 ha         1 HBJ       0.117500
     42 H9           0.2540    -3.4970     2.3340 ha         1 HBJ       0.130000
     43 H10         -1.9950     0.8610     1.1560 h1         1 HBJ       0.066700
     44 H11         -0.4740     0.7460     2.0160 h1         1 HBJ       0.066700
     45 H12          3.4440    -0.8230     2.7110 ha         1 HBJ       0.128500
     46 H13          1.9620     1.1420     2.8370 ha         1 HBJ       0.125500
     47 H14         -2.3980     1.5410    -1.3190 ha         1 HBJ       0.130000
     48 H15         -4.7330     1.1360    -1.9530 ha         1 HBJ       0.115500
     49 H16         -6.8390     0.2690    -0.9350 h1         1 HBJ       0.037700
     50 H17         -8.4410     0.9380    -1.2870 h1         1 HBJ       0.037700
     51 H18         -7.1800     0.9600    -2.5460 h1         1 HBJ       0.037700
     52 H19         -7.4830     4.4440    -1.2050 h1         1 HBJ       0.037700
     53 H20         -8.7480     3.2810    -1.6360 h1         1 HBJ       0.037700
     54 H21         -8.3470     3.5520     0.0790 h1         1 HBJ       0.037700
     55 H22         -6.0210     4.2080     0.7950 ha         1 HBJ       0.115500
     56 H23         -3.6830     4.6130     1.4440 ha         1 HBJ       0.130000
     57 H24          0.9320    -2.0340    -1.6880 ha         1 HBJ       0.130000
     58 H25          2.0200    -4.1560    -2.2740 ha         1 HBJ       0.117500
     59 H26         -0.2340    -1.3290     1.7980 hn         1 HBJ       0.151000
     60 H27          4.3720    -2.1370    -1.5780 hn         1 HBJ       0.337500
     61 H28          6.2800    -3.5800    -1.5130 ho         1 HBJ       0.449000
     62 C01          2.4550    -6.3460    -0.6810 c3         1 HBJ      -0.042800
@<TRIPOS>BOND
     1     1     2 1   
     2     1    28 1   
     3     1    31 2   
     4     2     3 ar  
     5     2    13 ar  
     6     3     4 ar  
     7     3    34 1   
     8     4     5 ar  
     9     4    35 1   
    10     5     6 1   
    11     5    14 ar  
    12     6    27 1   
    13     6    36 1   
    14     6    37 1   
    15     7     8 ar  
    16     7    25 ar  
    17     7    62 1   
    18     8     9 ar  
    19     8    41 1   
    20     9    10 ar  
    21     9    42 1   
    22    10    24 ar  
    23    10    26 1   
    24    11    12 1   
    25    11    26 1   
    26    11    30 2   
    27    12    27 1   
    28    12    43 1   
    29    12    44 1   
    30    13    14 ar  
    31    13    45 1   
    32    14    46 1   
    33    15    16 1   
    34    15    27 1   
    35    15    33 2   
    36    16    17 ar  
    37    16    23 ar  
    38    17    18 ar  
    39    17    47 1   
    40    18    19 ar  
    41    18    48 1   
    42    19    22 ar  
    43    19    29 1   
    44    20    29 1   
    45    20    49 1   
    46    20    50 1   
    47    20    51 1   
    48    21    29 1   
    49    21    52 1   
    50    21    53 1   
    51    21    54 1   
    52    22    23 ar  
    53    22    55 1   
    54    23    56 1   
    55    24    25 ar  
    56    24    57 1   
    57    25    58 1   
    58    26    59 1   
    59    28    32 1   
    60    28    60 1   
    61    32    61 1   
    62    38    62 1   
    63    39    62 1   
    64    40    62 1   
@<TRIPOS>SUBSTRUCTURE
     1 HBJ         1 TEMP              0 ****  ****    0 ROOT
