@<TRIPOS>MOLECULE
HBJ
   62    64     1     0     0
SMALL
bcc


@<TRIPOS>ATOM
      1 C16          4.4450    -1.8920     0.6910 c          1 HBJ       0.670700
      2 C15          3.5760    -0.6810     0.7200 ca         1 HBJ      -0.147600
      3 C14          3.1530    -0.0410    -0.4430 ca         1 HBJ      -0.092000
      4 C13          2.3340     1.0730    -0.3680 ca         1 HBJ      -0.124500
      5 C12          1.9030     1.5540     0.8640 ca         1 HBJ      -0.091300
      6 C11          0.9230     2.6920     0.9400 c3         1 HBJ       0.133300
      7 C02          1.6500    -4.9350    -0.5210 ca         1 HBJ      -0.094300
      8 C03          1.6020    -4.5790     0.8240 ca         1 HBJ      -0.107000
      9 C04          1.0950    -3.3560     1.2270 ca         1 HBJ      -0.174500
     10 C05          0.6070    -2.4390     0.2940 ca         1 HBJ       0.063600
     11 C07         -0.3820    -0.1640     0.1350 c          1 HBJ       0.664100
     12 C09         -0.8450     0.9680     1.0520 c3         1 HBJ       0.022000
     13 C20          3.2010    -0.1640     1.9560 ca         1 HBJ      -0.092000
     14 C21          2.3640     0.9370     2.0230 ca         1 HBJ      -0.124500
     15 C22         -1.3200     3.2700     0.2890 c          1 HBJ       0.695700
     16 C24         -2.7240     2.9280    -0.0530 ca         1 HBJ      -0.224600
     17 C25         -3.0910     1.9260    -0.9520 ca         1 HBJ      -0.040000
     18 C26         -4.4130     1.7080    -1.2890 ca         1 HBJ      -0.230000
     19 C27         -5.4490     2.4770    -0.7210 ca         1 HBJ       0.225600
     20 C29         -7.1100     1.1960    -1.9480 c3         1 HBJ       0.221100
     21 C30         -7.7900     3.0600    -0.4280 c3         1 HBJ       0.221100
     22 C31         -5.0690     3.5010     0.1730 ca         1 HBJ      -0.230000
     23 C32         -3.7410     3.7220     0.4770 ca         1 HBJ      -0.040000
     24 C33          0.6560    -2.7750    -1.0580 ca         1 HBJ      -0.174500
     25 C34          1.1720    -4.0080    -1.4420 ca         1 HBJ      -0.107000
     26 N06          0.1010    -1.2370     0.7980 ns         1 HBJ      -0.465100
     27 N10         -0.4360     2.2710     0.5820 n          1 HBJ      -0.458800
     28 N18          4.2350    -2.6830    -0.3880 ns         1 HBJ      -0.432400
     29 N28         -6.7550     2.2470    -1.0220 nh         1 HBJ      -0.692000
     30 O08         -0.4890    -0.0880    -1.0750 o          1 HBJ      -0.577100
     31 O17          5.2780    -2.1220     1.5470 o          1 HBJ      -0.559100
     32 O19          4.8670    -3.8920    -0.4280 oh         1 HBJ      -0.402100
     33 O23         -0.9670     4.4420     0.3110 o          1 HBJ      -0.593100
     34 H1           3.4680    -0.3970    -1.4150 ha         1 HBJ       0.146500
     35 H2           2.0100     1.5580    -1.2800 ha         1 HBJ       0.143500
     36 H3           0.9250     3.1110     1.9510 h1         1 HBJ       0.065700
     37 H4           1.2280     3.4860     0.2620 h1         1 HBJ       0.065700
     38 H5           3.2810    -6.1400    -1.2180 hc         1 HBJ       0.044367
     39 H6           2.1520    -7.0020    -0.1830 hc         1 HBJ       0.044367
     40 H7           1.7140    -6.6280    -1.8490 hc         1 HBJ       0.044367
     41 H8           1.9650    -5.2670     1.5780 ha         1 HBJ       0.135500
     42 H9           1.0740    -3.1110     2.2830 ha         1 HBJ       0.148000
     43 H10         -1.9330     0.9160     1.1100 h1         1 HBJ       0.066700
     44 H11         -0.4890     0.8200     2.0760 h1         1 HBJ       0.066700
     45 H12          3.5420    -0.6360     2.8680 ha         1 HBJ       0.146500
     46 H13          2.0500     1.3100     2.9910 ha         1 HBJ       0.143500
     47 H14         -2.3350     1.3100    -1.4200 ha         1 HBJ       0.148000
     48 H15         -4.6320     0.9270    -2.0040 ha         1 HBJ       0.133500
     49 H16         -6.7490     0.2200    -1.6150 h1         1 HBJ       0.037700
     50 H17         -8.1910     1.1370    -2.0250 h1         1 HBJ       0.037700
     51 H18         -6.7140     1.3770    -2.9510 h1         1 HBJ       0.037700
     52 H19         -7.6870     4.1170    -0.6900 h1         1 HBJ       0.037700
     53 H20         -8.7590     2.7260    -0.7860 h1         1 HBJ       0.037700
     54 H21         -7.7960     2.9850     0.6620 h1         1 HBJ       0.037700
     55 H22         -5.8120     4.1350     0.6360 ha         1 HBJ       0.133500
     56 H23         -3.4970     4.5270     1.1590 ha         1 HBJ       0.148000
     57 H24          0.2960    -2.0960    -1.8130 ha         1 HBJ       0.148000
     58 H25          1.1950    -4.2470    -2.4990 ha         1 HBJ       0.135500
     59 H26          0.1610    -1.1480     1.8010 hn         1 HBJ       0.317500
     60 H27          3.3300    -2.6920    -0.8440 hn         1 HBJ       0.337500
     61 H28          5.5700    -3.7960    -1.0820 ho         1 HBJ       0.410000
     62 C01          2.2250    -6.2470    -0.9650 c3         1 HBJ      -0.042800
@<TRIPOS>BOND
     1     1     2 1   
     2     1    28 1   
     3     1    31 2   
     4     2     3 ar  
     5     2    13 ar  
     6     3     4 ar  
     7     3    34 1   
     8     4     5 ar  
     9     4    35 1   
    10     5     6 1   
    11     5    14 ar  
    12     6    27 1   
    13     6    36 1   
    14     6    37 1   
    15     7     8 ar  
    16     7    25 ar  
    17     7    62 1   
    18     8     9 ar  
    19     8    41 1   
    20     9    10 ar  
    21     9    42 1   
    22    10    24 ar  
    23    10    26 1   
    24    11    12 1   
    25    11    26 1   
    26    11    30 2   
    27    12    27 1   
    28    12    43 1   
    29    12    44 1   
    30    13    14 ar  
    31    13    45 1   
    32    14    46 1   
    33    15    16 1   
    34    15    27 1   
    35    15    33 2   
    36    16    17 ar  
    37    16    23 ar  
    38    17    18 ar  
    39    17    47 1   
    40    18    19 ar  
    41    18    48 1   
    42    19    22 ar  
    43    19    29 1   
    44    20    29 1   
    45    20    49 1   
    46    20    50 1   
    47    20    51 1   
    48    21    29 1   
    49    21    52 1   
    50    21    53 1   
    51    21    54 1   
    52    22    23 ar  
    53    22    55 1   
    54    23    56 1   
    55    24    25 ar  
    56    24    57 1   
    57    25    58 1   
    58    26    59 1   
    59    28    32 1   
    60    28    60 1   
    61    32    61 1   
    62    38    62 1   
    63    39    62 1   
    64    40    62 1   
@<TRIPOS>SUBSTRUCTURE
     1 HBJ         1 TEMP              0 ****  ****    0 ROOT
