@<TRIPOS>MOLECULE
HBK
   24    25     1     0     0
SMALL
No Charge or Current Charge


@<TRIPOS>ATOM
      1 O1A          3.1540     2.2100    -0.0350 oh         1 HBK      -0.595000
      2 C1B         -0.0960     0.6820    -0.0900 ca         1 HBK       0.133100
      3 O1B          0.9390     1.5930    -0.1720 os         1 HBK      -0.369100
      4 C2B          2.2140     1.2060     0.3790 c6         1 HBK       0.330300
      5 C3B          2.6160    -0.2360    -0.0870 c          1 HBK       0.551000
      6 N3B          1.5350    -1.1520    -0.0600 n          1 HBK      -0.097900
      7 O3B          3.7430    -0.5460    -0.4750 o          1 HBK      -0.473000
      8 C4B          0.1680    -0.7060    -0.0020 ca         1 HBK      -0.124000
      9 C5B         -0.9120    -1.6080     0.0890 ca         1 HBK      -0.065000
     10 C6B         -2.2350    -1.1290     0.0850 ca         1 HBK      -0.198000
     11 C7B         -2.4900     0.2560    -0.0220 ca         1 HBK       0.153100
     12 O7B         -3.7680     0.7770    -0.0390 os         1 HBK      -0.336100
     13 C8B         -1.4160     1.1530    -0.1130 ca         1 HBK      -0.145000
     14 C9B         -4.9380    -0.0560     0.0480 c3         1 HBK       0.147900
     15 OHB          1.7780    -2.5270    -0.4110 oh         1 HBK      -0.400100
     16 HO1A         2.7030     3.0650     0.1270 ho         1 HBK       0.468000
     17 H2B          2.1440     1.1820     1.4760 h2         1 HBK       0.047700
     18 H5B         -0.7380    -2.6800     0.1570 ha         1 HBK       0.127000
     19 H6B         -3.0460    -1.8480     0.1560 ha         1 HBK       0.124000
     20 H8B         -1.6070     2.2180    -0.1920 ha         1 HBK       0.147000
     21 H9B         -4.9780    -0.7630    -0.7900 h1         1 HBK       0.043700
     22 H9BA        -4.9450    -0.6220     0.9880 h1         1 HBK       0.043700
     23 H9BB        -5.8460     0.5600     0.0160 h1         1 HBK       0.043700
     24 HOHB         1.9340    -2.9750     0.4490 ho         1 HBK       0.442000
@<TRIPOS>BOND
     1     1     4 1   
     2     1    16 1   
     3     2     3 1   
     4     2     8 ar  
     5     2    13 ar  
     6     3     4 1   
     7     4     5 1   
     8     4    17 1   
     9     5     6 1   
    10     5     7 2   
    11     6     8 1   
    12     6    15 1   
    13     8     9 ar  
    14     9    10 ar  
    15     9    18 1   
    16    10    11 ar  
    17    10    19 1   
    18    11    12 1   
    19    11    13 ar  
    20    12    14 1   
    21    13    20 1   
    22    14    21 1   
    23    14    22 1   
    24    14    23 1   
    25    15    24 1   
@<TRIPOS>SUBSTRUCTURE
     1 HBK         1 TEMP              0 ****  ****    0 ROOT
