@<TRIPOS>MOLECULE
HBK
   24    25     1     0     0
SMALL
abcg2


@<TRIPOS>ATOM
      1 O1A          3.0650     2.0640    -0.0280 oh         1 HBK      -0.595000
      2 C1B         -0.1290     0.6700    -0.2290 ca         1 HBK       0.133100
      3 O1B          0.8990     1.5300    -0.4200 os         1 HBK      -0.369100
      4 C2B          2.0750     1.1970     0.3140 c6         1 HBK       0.330300
      5 C3B          2.5270    -0.2200    -0.0590 c          1 HBK       0.551000
      6 N3B          1.4880    -1.0850    -0.1390 n          1 HBK      -0.097900
      7 O3B          3.6860    -0.5310    -0.2070 o          1 HBK      -0.473000
      8 C4B          0.1440    -0.6900    -0.0700 ca         1 HBK      -0.124000
      9 C5B         -0.9040    -1.5760     0.0930 ca         1 HBK      -0.065000
     10 C6B         -2.2170    -1.1200     0.0950 ca         1 HBK      -0.198000
     11 C7B         -2.4850     0.2370    -0.0640 ca         1 HBK       0.153100
     12 O7B         -3.7170     0.7760    -0.0750 os         1 HBK      -0.336100
     13 C8B         -1.4270     1.1360    -0.2150 ca         1 HBK      -0.145000
     14 C9B         -4.8300    -0.0770     0.1100 c3         1 HBK       0.147900
     15 OHB          1.7500    -2.3800    -0.4490 oh         1 HBK      -0.400100
     16 HO1A         2.9820     2.8690     0.4950 ho         1 HBK       0.468000
     17 H2B          1.8350     1.2220     1.3880 h2         1 HBK       0.047700
     18 H5B         -0.7180    -2.6350     0.2030 ha         1 HBK       0.127000
     19 H6B         -3.0100    -1.8440     0.2140 ha         1 HBK       0.124000
     20 H8B         -1.6200     2.1950    -0.3350 ha         1 HBK       0.147000
     21 H9B         -4.9120    -0.8220    -0.6850 h1         1 HBK       0.043700
     22 H9BA        -4.7950    -0.5900     1.0740 h1         1 HBK       0.043700
     23 H9BB        -5.7120     0.5580     0.0840 h1         1 HBK       0.043700
     24 HOHB         1.9400    -2.8320     0.3870 ho         1 HBK       0.442000
@<TRIPOS>BOND
     1     1     4 1   
     2     1    16 1   
     3     2     3 1   
     4     2     8 ar  
     5     2    13 ar  
     6     3     4 1   
     7     4     5 1   
     8     4    17 1   
     9     5     6 1   
    10     5     7 2   
    11     6     8 1   
    12     6    15 1   
    13     8     9 ar  
    14     9    10 ar  
    15     9    18 1   
    16    10    11 ar  
    17    10    19 1   
    18    11    12 1   
    19    11    13 ar  
    20    12    14 1   
    21    13    20 1   
    22    14    21 1   
    23    14    22 1   
    24    14    23 1   
    25    15    24 1   
@<TRIPOS>SUBSTRUCTURE
     1 HBK         1 TEMP              0 ****  ****    0 ROOT
