@<TRIPOS>MOLECULE
HBM
   54    57     1     0     0
SMALL
bcc


@<TRIPOS>ATOM
      1 C2           0.9450     0.4400     2.5050 ca         1 HBM      -0.035000
      2 C4           2.6970    -1.2350     2.4390 ca         1 HBM       0.239100
      3 C6           0.3880    -1.7770     1.9360 ca         1 HBM       0.007800
      4 C10          0.2390    -5.3170     1.3400 ca         1 HBM      -0.106900
      5 C11         -0.4940    -5.5780     0.1840 ca         1 HBM      -0.108000
      6 C1          -0.0480    -0.4680     2.1630 ca         1 HBM      -0.212600
      7 C3           2.2900     0.0790     2.6270 ca         1 HBM      -0.223000
      8 C5           1.7170    -2.1740     2.1020 ca         1 HBM      -0.040600
      9 N7          -0.2680    -2.9280     1.6220 na         1 HBM      -0.233300
     10 C8           0.6430    -3.9400     1.6370 cc         1 HBM       0.468400
     11 N9           1.8480    -3.5250     1.9110 nd         1 HBM      -0.561100
     12 C12         -0.9120    -6.8580    -0.1350 ca         1 HBM      -0.133000
     13 C13         -0.5870    -7.8960     0.7230 ca         1 HBM       0.039400
     14 C14          0.1260    -7.6730     1.8890 ca         1 HBM      -0.104000
     15 C15          0.5290    -6.3830     2.1890 ca         1 HBM       0.065400
     16 CL16        -1.0880    -9.5050     0.3440 cl         1 HBM      -0.093400
     17 CL17         1.3470    -6.1220     3.6830 cl         1 HBM      -0.065400
     18 C18         -1.4990    -0.1830     2.0750 c          1 HBM       0.695700
     19 N19         -1.9680     0.8000     2.8680 ns         1 HBM      -0.551900
     20 C20         -3.3760     0.9390     3.1670 c3         1 HBM       0.094000
     21 C21         -3.7720     0.1380     4.4170 c3         1 HBM      -0.064100
     22 C22         -3.3930    -1.3110     4.3030 ca         1 HBM      -0.073300
     23 C23         -4.2180    -2.2170     3.6440 ca         1 HBM      -0.108000
     24 C24         -3.8380    -3.5380     3.4720 ca         1 HBM      -0.125000
     25 C25         -2.6010    -3.9750     3.9360 ca         1 HBM       0.081600
     26 C26         -1.7590    -3.0790     4.5840 ca         1 HBM      -0.125000
     27 C27         -2.1640    -1.7670     4.7760 ca         1 HBM      -0.108000
     28 N28         -2.1840    -5.3160     3.7330 nu         1 HBM      -0.683500
     29 S29         -2.1810    -6.3730     5.0180 s6         1 HBM       1.223900
     30 C30         -3.8830    -6.5500     5.5070 c3         1 HBM      -0.271300
     31 O31         -1.7190    -7.6460     4.4950 o          1 HBM      -0.596300
     32 O32         -1.4670    -5.7340     6.1090 o          1 HBM      -0.596300
     33 O33         -2.2160    -0.8510     1.3370 o          1 HBM      -0.626100
     34 O34          3.9830    -1.5750     2.5890 oh         1 HBM      -0.481100
     35 H2           0.6880     1.4780     2.6760 ha         1 HBM       0.131000
     36 H11         -0.7320    -4.7660    -0.4910 ha         1 HBM       0.146000
     37 H3           3.0240     0.8330     2.8800 ha         1 HBM       0.152000
     38 HN7         -1.2630    -3.0070     1.4750 hn         1 HBM       0.333700
     39 H12         -1.4740    -7.0410    -1.0400 ha         1 HBM       0.153000
     40 H14          0.3520    -8.4860     2.5630 ha         1 HBM       0.179000
     41 HN19        -1.3340     1.1970     3.5430 hn         1 HBM       0.308500
     42 H201        -3.9510     0.6090     2.3050 h1         1 HBM       0.065700
     43 H202        -3.6010     1.9940     3.3260 h1         1 HBM       0.065700
     44 H211        -3.2890     0.5830     5.2900 hc         1 HBM       0.054700
     45 H212        -4.8490     0.2470     4.5620 hc         1 HBM       0.054700
     46 H23         -5.1760    -1.8890     3.2580 ha         1 HBM       0.137500
     47 H24         -4.5010    -4.2290     2.9640 ha         1 HBM       0.149500
     48 H26         -0.7830    -3.4020     4.9180 ha         1 HBM       0.149500
     49 H27         -1.5000    -1.0850     5.2920 ha         1 HBM       0.137500
     50 HN28        -2.5470    -5.7550     2.8930 hn         1 HBM       0.430800
     51 H301        -4.4520    -6.9640     4.6780 h1         1 HBM       0.102367
     52 H302        -3.9160    -7.2280     6.3580 h1         1 HBM       0.102367
     53 H303        -4.2840    -5.5800     5.7940 h1         1 HBM       0.102367
     54 HO34         4.0930    -2.5220     2.4330 ho         1 HBM       0.457000
@<TRIPOS>BOND
     1     1     6 ar  
     2     1     7 ar  
     3     1    35 1   
     4     2     7 ar  
     5     2     8 ar  
     6     2    34 1   
     7     3     6 ar  
     8     3     8 ar  
     9     3     9 1   
    10     4     5 ar  
    11     4    10 1   
    12     4    15 ar  
    13     5    12 ar  
    14     5    36 1   
    15     6    18 1   
    16     7    37 1   
    17     8    11 1   
    18     9    10 1   
    19     9    38 1   
    20    10    11 2   
    21    12    13 ar  
    22    12    39 1   
    23    13    14 ar  
    24    13    16 1   
    25    14    15 ar  
    26    14    40 1   
    27    15    17 1   
    28    18    19 1   
    29    18    33 2   
    30    19    20 1   
    31    19    41 1   
    32    20    21 1   
    33    20    42 1   
    34    20    43 1   
    35    21    22 1   
    36    21    44 1   
    37    21    45 1   
    38    22    23 ar  
    39    22    27 ar  
    40    23    24 ar  
    41    23    46 1   
    42    24    25 ar  
    43    24    47 1   
    44    25    26 ar  
    45    25    28 1   
    46    26    27 ar  
    47    26    48 1   
    48    27    49 1   
    49    28    29 1   
    50    28    50 1   
    51    29    30 1   
    52    29    31 2   
    53    29    32 2   
    54    30    51 1   
    55    30    52 1   
    56    30    53 1   
    57    34    54 1   
@<TRIPOS>SUBSTRUCTURE
     1 HBM         1 TEMP              0 ****  ****    0 ROOT
