@<TRIPOS>MOLECULE
HBM
   54    57     1     0     0
SMALL
No Charge or Current Charge


@<TRIPOS>ATOM
      1 C2           0.9650     0.3710     2.8000 ca         1 HBM      -0.017000
      2 C4           2.7070    -1.3510     2.8250 ca         1 HBM       0.239100
      3 C6           0.4660    -1.8960     2.1720 ca         1 HBM       0.007800
      4 C10          0.2920    -5.4620     1.4770 ca         1 HBM      -0.106900
      5 C11         -0.8300    -5.6520     0.6310 ca         1 HBM      -0.090000
      6 C1           0.0090    -0.5790     2.3550 ca         1 HBM      -0.212600
      7 C3           2.3080    -0.0170     3.0260 ca         1 HBM      -0.205000
      8 C5           1.7510    -2.2850     2.3990 ca         1 HBM      -0.040600
      9 N7          -0.2120    -3.0180     1.8160 na         1 HBM      -0.283600
     10 C8           0.6820    -4.0860     1.8370 cc         1 HBM       0.468400
     11 N9           1.9170    -3.6540     2.1740 nd         1 HBM      -0.561100
     12 C12         -1.2340    -6.9400     0.2420 ca         1 HBM      -0.115000
     13 C13         -0.5200    -8.0610     0.6810 ca         1 HBM       0.131000
     14 C14          0.6000    -7.8960     1.5030 ca         1 HBM      -0.086000
     15 C15          1.0160    -6.6130     1.8990 ca         1 HBM       0.157000
     16 Cl16        -1.0290    -9.6730     0.1960 cl         1 HBM      -0.185000
     17 Cl17         2.4140    -6.5400     2.9760 cl         1 HBM      -0.157000
     18 C18         -1.4320    -0.2250     2.1080 c          1 HBM       0.628700
     19 N19         -1.9250     0.8370     2.8340 ns         1 HBM      -0.484900
     20 C20         -3.3560     1.1340     2.9860 c3         1 HBM       0.094000
     21 C21         -3.9980     0.3300     4.1440 c3         1 HBM      -0.064100
     22 C22         -3.7290    -1.1690     4.0480 ca         1 HBM      -0.073300
     23 C23         -4.4860    -1.9730     3.1780 ca         1 HBM      -0.090000
     24 C24         -4.1690    -3.3330     3.0130 ca         1 HBM      -0.107000
     25 C25         -3.0990    -3.9120     3.7170 ca         1 HBM       0.220000
     26 C26         -2.3520    -3.1080     4.6020 ca         1 HBM      -0.107000
     27 C27         -2.6670    -1.7490     4.7690 ca         1 HBM      -0.090000
     28 N28         -2.8020    -5.2560     3.4840 nu         1 HBM      -0.877100
     29 S29         -2.0380    -6.3590     4.4640 s6         1 HBM       1.193100
     30 C30         -2.9570    -6.3290     5.9870 c3         1 HBM      -0.382100
     31 O31         -2.2460    -7.6500     3.8100 o          1 HBM      -0.525500
     32 O32         -0.6850    -5.8520     4.6970 o          1 HBM      -0.525500
     33 O33         -2.1250    -0.8430     1.3100 o          1 HBM      -0.626100
     34 O34          3.9890    -1.7460     3.0500 oh         1 HBM      -0.520100
     35 H2           0.6850     1.4110     2.9550 ha         1 HBM       0.113000
     36 H11         -1.3990    -4.8020     0.2610 ha         1 HBM       0.128000
     37 H3           3.0360     0.7180     3.3590 ha         1 HBM       0.134000
     38 HN7         -1.1980    -3.0750     1.6030 hn         1 HBM       0.384000
     39 H12         -2.1000    -7.0680    -0.4030 ha         1 HBM       0.135000
     40 H14          1.1490    -8.7700     1.8430 ha         1 HBM       0.161000
     41 HN19        -1.2770     1.2880     3.4660 hn         1 HBM       0.308500
     42 H201        -3.8750     0.8990     2.0470 h1         1 HBM       0.065700
     43 H202        -3.4790     2.2090     3.1740 h1         1 HBM       0.065700
     44 H211        -3.6160     0.7200     5.0960 hc         1 HBM       0.054700
     45 H212        -5.0780     0.5220     4.1510 hc         1 HBM       0.054700
     46 H23         -5.3020    -1.5380     2.6050 ha         1 HBM       0.119500
     47 H24         -4.7520    -3.9350     2.3210 ha         1 HBM       0.131500
     48 H26         -1.5100    -3.5150     5.1500 ha         1 HBM       0.131500
     49 H27         -2.0630    -1.1380     5.4360 ha         1 HBM       0.119500
     50 HN28        -3.4500    -5.7960     2.9260 hn         1 HBM       0.486000
     51 H301        -3.9930    -6.5920     5.7530 h1         1 HBM       0.102367
     52 H302        -2.5020    -7.0650     6.6580 h1         1 HBM       0.102367
     53 H303        -2.8860    -5.3190     6.4000 h1         1 HBM       0.102367
     54 HO34         4.0050    -2.7090     2.8540 ho         1 HBM       0.496000
@<TRIPOS>BOND
     1     1     6 ar  
     2     1     7 ar  
     3     1    35 1   
     4     2     7 ar  
     5     2     8 ar  
     6     2    34 1   
     7     3     6 ar  
     8     3     8 ar  
     9     3     9 1   
    10     4     5 ar  
    11     4    10 1   
    12     4    15 ar  
    13     5    12 ar  
    14     5    36 1   
    15     6    18 1   
    16     7    37 1   
    17     8    11 1   
    18     9    10 1   
    19     9    38 1   
    20    10    11 2   
    21    12    13 ar  
    22    12    39 1   
    23    13    14 ar  
    24    13    16 1   
    25    14    15 ar  
    26    14    40 1   
    27    15    17 1   
    28    18    19 1   
    29    18    33 2   
    30    19    20 1   
    31    19    41 1   
    32    20    21 1   
    33    20    42 1   
    34    20    43 1   
    35    21    22 1   
    36    21    44 1   
    37    21    45 1   
    38    22    23 ar  
    39    22    27 ar  
    40    23    24 ar  
    41    23    46 1   
    42    24    25 ar  
    43    24    47 1   
    44    25    26 ar  
    45    25    28 1   
    46    26    27 ar  
    47    26    48 1   
    48    27    49 1   
    49    28    29 1   
    50    28    50 1   
    51    29    30 1   
    52    29    31 2   
    53    29    32 2   
    54    30    51 1   
    55    30    52 1   
    56    30    53 1   
    57    34    54 1   
@<TRIPOS>SUBSTRUCTURE
     1 HBM         1 TEMP              0 ****  ****    0 ROOT
