@<TRIPOS>MOLECULE
HBN
   37    39     1     0     0
SMALL
abcg2


@<TRIPOS>ATOM
      1 C1          48.6470  -104.4890    86.9670 ca         1 HBN      -0.108000
      2 C2          49.6300  -103.5420    87.0990 ca         1 HBN      -0.100000
      3 C3          49.3660  -102.3220    87.7620 ca         1 HBN      -0.117000
      4 C4          48.1210  -102.0730    88.2810 ca         1 HBN      -0.088000
      5 C4A         47.0840  -103.0310    88.1620 ca         1 HBN      -0.060000
      6 C8A         47.3490  -104.2640    87.4940 ca         1 HBN      -0.007000
      7 C8          46.3180  -105.2190    87.3810 ca         1 HBN      -0.167000
      8 C7          45.0630  -104.9820    87.9030 ca         1 HBN      -0.011000
      9 C6          44.7970  -103.7550    88.5650 ca         1 HBN      -0.125000
     10 C5          45.7870  -102.8150    88.6850 ca         1 HBN      -0.075000
     11 N1          44.0960  -105.9870    87.7600 ns         1 HBN      -0.138000
     12 N           43.0110  -108.3980    87.4670 n8         1 HBN      -1.033200
     13 CA          42.0740  -107.3140    87.7540 c3         1 HBN       0.088500
     14 C           42.7980  -106.0160    88.1370 c          1 HBN       0.599100
     15 O           42.1930  -105.1110    88.7040 o          1 HBN      -0.593100
     16 CB          41.2010  -107.0200    86.5240 c3         1 HBN      -0.003100
     17 CG          40.2890  -108.1480    86.1720 cc         1 HBN      -0.208300
     18 ND1         39.8130  -108.3360    84.8940 na         1 HBN      -0.306500
     19 CD2         39.7190  -109.1580    86.9060 cd         1 HBN       0.227900
     20 CE1         38.9910  -109.4160    84.9010 cc         1 HBN       0.397400
     21 NE2         38.9110  -109.9430    86.1060 nd         1 HBN      -0.669000
     22 H1          48.8480  -105.4250    86.4590 ha         1 HBN       0.111000
     23 HC2         50.6170  -103.7270    86.6930 ha         1 HBN       0.112000
     24 H3          50.1530  -101.5840    87.8580 ha         1 HBN       0.113000
     25 H4          47.9120  -101.1400    88.7900 ha         1 HBN       0.112000
     26 H8          46.5210  -106.1560    86.8750 ha         1 HBN       0.113000
     27 H6          43.8140  -103.5770    88.9690 ha         1 HBN       0.149000
     28 H5          45.5790  -101.8810    89.1920 ha         1 HBN       0.116000
     29 HN1         44.3900  -106.8500    87.3100 hn         1 HBN       0.181000
     30 H2          43.3360  -108.8260    88.3270 hn         1 HBN       0.419000
     31 HA          41.4160  -107.5320    88.6020 h1         1 HBN       0.064700
     32 HB2         40.6210  -106.1150    86.7240 hc         1 HBN       0.069200
     33 HB3         41.8540  -106.7990    85.6740 hc         1 HBN       0.069200
     34 HD1         40.0370  -107.7670    84.0910 hn         1 HBN       0.353000
     35 HD2         39.8470  -109.3660    87.9560 h4         1 HBN       0.036100
     36 HE1         38.4890  -109.7690    84.0150 h5         1 HBN       0.059100
     37 H           42.5490  -109.1260    86.9340 hn         1 HBN       0.419000
@<TRIPOS>BOND
     1     1     2 ar  
     2     1     6 ar  
     3     1    22 1   
     4     2     3 ar  
     5     2    23 1   
     6     3     4 ar  
     7     3    24 1   
     8     4     5 ar  
     9     4    25 1   
    10     5     6 ar  
    11     5    10 ar  
    12     6     7 ar  
    13     7     8 ar  
    14     7    26 1   
    15     8     9 ar  
    16     8    11 1   
    17     9    10 ar  
    18     9    27 1   
    19    10    28 1   
    20    11    14 1   
    21    11    29 1   
    22    12    13 1   
    23    12    30 1   
    24    12    37 1   
    25    13    14 1   
    26    13    16 1   
    27    13    31 1   
    28    14    15 2   
    29    16    17 1   
    30    16    32 1   
    31    16    33 1   
    32    17    18 1   
    33    17    19 2   
    34    18    20 1   
    35    18    34 1   
    36    19    21 1   
    37    19    35 1   
    38    20    21 2   
    39    20    36 1   
@<TRIPOS>SUBSTRUCTURE
     1 HBN         1 TEMP              0 ****  ****    0 ROOT
