@<TRIPOS>MOLECULE
HBN
   37    39     1     0     0
SMALL
No Charge or Current Charge


@<TRIPOS>ATOM
      1 C1          48.6100  -104.3800    86.8040 ca         1 HBN      -0.108000
      2 C2          49.6440  -103.4410    86.9600 ca         1 HBN      -0.100000
      3 C3          49.4440  -102.2990    87.7540 ca         1 HBN      -0.117000
      4 C4          48.2100  -102.0930    88.3940 ca         1 HBN      -0.088000
      5 C4A         47.1710  -103.0320    88.2400 ca         1 HBN      -0.060000
      6 C8A         47.3710  -104.1780    87.4430 ca         1 HBN      -0.007000
      7 C8          46.3330  -105.1150    87.2900 ca         1 HBN      -0.167000
      8 C7          45.0910  -104.9260    87.9250 ca         1 HBN      -0.011000
      9 C6          44.8980  -103.7730    88.7190 ca         1 HBN      -0.125000
     10 C5          45.9330  -102.8340    88.8750 ca         1 HBN      -0.075000
     11 N1          44.0910  -105.9150    87.7190 ns         1 HBN      -0.138000
     12 N           42.9430  -108.4520    87.1260 n8         1 HBN      -1.033200
     13 CA          42.0700  -107.3520    87.6820 c3         1 HBN       0.088500
     14 C           42.8110  -106.0810    88.2290 c          1 HBN       0.599100
     15 O           42.2940  -105.3340    89.0570 o          1 HBN      -0.593100
     16 CB          40.9880  -106.9470    86.6470 c3         1 HBN      -0.003100
     17 CG          40.1200  -108.0970    86.1950 cc         1 HBN      -0.208300
     18 ND1         40.2640  -108.7880    85.0090 na         1 HBN      -0.306500
     19 CD2         39.0370  -108.6720    86.8140 cd         1 HBN       0.227900
     20 CE1         39.2830  -109.7470    84.9540 cc         1 HBN       0.397400
     21 NE2         38.5250  -109.6950    86.0410 nd         1 HBN      -0.669000
     22 H1          48.7720  -105.2610    86.1880 ha         1 HBN       0.111000
     23 HC2         50.6010  -103.5990    86.4650 ha         1 HBN       0.112000
     24 H3          50.2460  -101.5730    87.8740 ha         1 HBN       0.113000
     25 H4          48.0620  -101.2070    89.0070 ha         1 HBN       0.112000
     26 H8          46.4930  -105.9970    86.6730 ha         1 HBN       0.113000
     27 H6          43.9540  -103.5820    89.2210 ha         1 HBN       0.149000
     28 H5          45.7680  -101.9510    89.4900 ha         1 HBN       0.116000
     29 HN1         44.3570  -106.6480    87.0730 hn         1 HBN       0.181000
     30 H2          43.4270  -108.9350    87.8950 hn         1 HBN       0.419000
     31 HA          41.5380  -107.7750    88.5460 h1         1 HBN       0.064700
     32 HB2         40.3500  -106.1710    87.0880 hc         1 HBN       0.069200
     33 HB3         41.4760  -106.4810    85.7810 hc         1 HBN       0.069200
     34 HD1         40.9610  -108.6300    84.2900 hn         1 HBN       0.353000
     35 HD2         38.5990  -108.4060    87.7690 h4         1 HBN       0.036100
     36 HE1         39.1760  -110.4310    84.1190 h5         1 HBN       0.059100
     37 H           42.3320  -109.1840    86.7380 hn         1 HBN       0.419000
@<TRIPOS>BOND
     1     1     2 ar  
     2     1     6 ar  
     3     1    22 1   
     4     2     3 ar  
     5     2    23 1   
     6     3     4 ar  
     7     3    24 1   
     8     4     5 ar  
     9     4    25 1   
    10     5     6 ar  
    11     5    10 ar  
    12     6     7 ar  
    13     7     8 ar  
    14     7    26 1   
    15     8     9 ar  
    16     8    11 1   
    17     9    10 ar  
    18     9    27 1   
    19    10    28 1   
    20    11    14 1   
    21    11    29 1   
    22    12    13 1   
    23    12    30 1   
    24    12    37 1   
    25    13    14 1   
    26    13    16 1   
    27    13    31 1   
    28    14    15 2   
    29    16    17 1   
    30    16    32 1   
    31    16    33 1   
    32    17    18 1   
    33    17    19 2   
    34    18    20 1   
    35    18    34 1   
    36    19    21 1   
    37    19    35 1   
    38    20    21 2   
    39    20    36 1   
@<TRIPOS>SUBSTRUCTURE
     1 HBN         1 TEMP              0 ****  ****    0 ROOT
