@<TRIPOS>MOLECULE
HBO
   24    25     1     0     0
SMALL
No Charge or Current Charge


@<TRIPOS>ATOM
      1 O1A         -1.8110     1.3370    -2.1750 oh         1 HBO      -0.652000
      2 C3B         -0.0020    -0.2960    -2.6840 c          1 HBO       0.561000
      3 N3B          0.9800    -0.0740    -1.6860 n          1 HBO      -0.078900
      4 C4B          0.6400    -0.0210    -0.2890 ca         1 HBO      -0.109000
      5 C1B         -0.6950    -0.2980     0.0930 ca         1 HBO       0.129100
      6 O1B         -1.6640    -0.5670    -0.8570 os         1 HBO      -0.360100
      7 C2B         -1.4690    -0.0630    -2.1970 c6         1 HBO       0.315300
      8 C5B          1.5990     0.2540     0.7080 ca         1 HBO      -0.067000
      9 C6B          1.2310     0.2420     2.0650 ca         1 HBO      -0.195000
     10 C8B         -1.0520    -0.3260     1.4480 ca         1 HBO      -0.142000
     11 O3B          0.2730    -0.6900    -3.8180 o          1 HBO      -0.499000
     12 OHB          2.3710    -0.2120    -2.0340 oh         1 HBO      -0.406100
     13 C7B         -0.0980    -0.0540     2.4400 ca         1 HBO       0.150100
     14 O7B         -0.5100    -0.0870     3.7570 os         1 HBO      -0.337100
     15 C9B          0.3890     0.1780     4.8490 c3         1 HBO       0.147900
     16 H1A         -2.6760     1.3850    -1.7130 ho         1 HBO       0.469000
     17 H2B         -2.1290    -0.6050    -2.8920 h2         1 HBO       0.101700
     18 H5B          2.6320     0.4700     0.4420 ha         1 HBO       0.127000
     19 H6B          1.9910     0.4570     2.8100 ha         1 HBO       0.124000
     20 H8B         -2.0760    -0.5520     1.7320 ha         1 HBO       0.145000
     21 HHB          2.6560     0.7000    -2.2610 ho         1 HBO       0.446000
     22 H9B3        -0.1430     0.0990     5.8050 h1         1 HBO       0.042700
     23 H9B2         1.2150    -0.5440     4.8580 h1         1 HBO       0.042700
     24 H9B1         0.8060     1.1900     4.7740 h1         1 HBO       0.042700
@<TRIPOS>BOND
     1     1     7 1   
     2     1    16 1   
     3     2     3 1   
     4     2     7 1   
     5     2    11 2   
     6     3     4 1   
     7     3    12 1   
     8     4     5 ar  
     9     4     8 ar  
    10     5     6 1   
    11     5    10 ar  
    12     6     7 1   
    13     7    17 1   
    14     8     9 ar  
    15     8    18 1   
    16     9    13 ar  
    17     9    19 1   
    18    10    13 ar  
    19    10    20 1   
    20    12    21 1   
    21    13    14 1   
    22    14    15 1   
    23    15    22 1   
    24    15    23 1   
    25    15    24 1   
@<TRIPOS>SUBSTRUCTURE
     1 HBO         1 TEMP              0 ****  ****    0 ROOT
