@<TRIPOS>MOLECULE
HBO
   24    25     1     0     0
SMALL
bcc


@<TRIPOS>ATOM
      1 O1A         -1.6590     1.2860    -1.9610 oh         1 HBO      -0.589800
      2 C3B         -0.0020    -0.2160    -2.5990 c          1 HBO       0.703500
      3 N3B          0.9390    -0.1430    -1.6330 n          1 HBO      -0.238500
      4 C4B          0.6410    -0.0820    -0.2640 ca         1 HBO      -0.016400
      5 C1B         -0.6650    -0.3870     0.1210 ca         1 HBO       0.129100
      6 O1B         -1.5740    -0.7320    -0.8250 os         1 HBO      -0.336900
      7 C2B         -1.4230    -0.0680    -2.0610 c6         1 HBO       0.268900
      8 C5B          1.5770     0.2220     0.7070 ca         1 HBO      -0.085000
      9 C6B          1.2230     0.2270     2.0510 ca         1 HBO      -0.213000
     10 C8B         -1.0330    -0.3700     1.4480 ca         1 HBO      -0.160000
     11 O3B          0.2350    -0.3420    -3.7810 o          1 HBO      -0.574500
     12 OHB          2.2430    -0.2580    -1.9900 oh         1 HBO      -0.367100
     13 C7B         -0.0830    -0.0740     2.4280 ca         1 HBO       0.150100
     14 O7B         -0.5250    -0.0960     3.6990 os         1 HBO      -0.313900
     15 C9B          0.3830     0.2240     4.7340 c3         1 HBO       0.124700
     16 H1A         -2.6100     1.4500    -1.9490 ho         1 HBO       0.430000
     17 H2B         -2.1090    -0.5760    -2.7410 h2         1 HBO       0.101700
     18 H5B          2.5970     0.4520     0.4330 ha         1 HBO       0.145000
     19 H6B          1.9850     0.4600     2.7810 ha         1 HBO       0.142000
     20 H8B         -2.0520    -0.6040     1.7280 ha         1 HBO       0.163000
     21 HHB          2.5480     0.6320    -2.2230 ho         1 HBO       0.407000
     22 H9B3        -0.1710     0.1420     5.6660 h1         1 HBO       0.042700
     23 H9B2         1.2290    -0.4670     4.7650 h1         1 HBO       0.042700
     24 H9B1         0.7640     1.2440     4.6410 h1         1 HBO       0.042700
@<TRIPOS>BOND
     1     1     7 1   
     2     1    16 1   
     3     2     3 1   
     4     2     7 1   
     5     2    11 2   
     6     3     4 1   
     7     3    12 1   
     8     4     5 ar  
     9     4     8 ar  
    10     5     6 1   
    11     5    10 ar  
    12     6     7 1   
    13     7    17 1   
    14     8     9 ar  
    15     8    18 1   
    16     9    13 ar  
    17     9    19 1   
    18    10    13 ar  
    19    10    20 1   
    20    12    21 1   
    21    13    14 1   
    22    14    15 1   
    23    15    22 1   
    24    15    23 1   
    25    15    24 1   
@<TRIPOS>SUBSTRUCTURE
     1 HBO         1 TEMP              0 ****  ****    0 ROOT
