@<TRIPOS>MOLECULE
HBP
   51    52     1     0     0
SMALL
bcc


@<TRIPOS>ATOM
      1 C1           3.6810    -0.5260     1.1790 c3         1 HBP      -0.001700
      2 C5           1.2130    -0.0960     1.1810 c3         1 HBP      -0.074400
      3 O10          5.6760     3.5710    -0.4730 oh         1 HBP      -0.325000
      4 N9           6.0880     2.3060    -0.5850 n2         1 HBP      -0.339700
      5 C8A          5.2420     1.4570    -0.1610 ce         1 HBP       0.335800
      6 C7           5.6030     0.0450    -0.2720 ca         1 HBP      -0.003200
      7 C6           6.6910    -0.3690    -1.0300 ca         1 HBP      -0.119500
      8 C4           6.2200    -2.6430    -0.4680 ca         1 HBP      -0.127000
      9 C3           5.1570    -2.1960     0.2720 ca         1 HBP      -0.032300
     10 N2           4.8660    -0.8870     0.3720 na         1 HBP       0.035400
     11 C2           2.4340    -0.3880     0.3190 c3         1 HBP      -0.099400
     12 C5A          7.0060    -1.7080    -1.1280 ca         1 HBP      -0.004000
     13 C8          -0.0520     0.0780     0.3500 c3         1 HBP      -0.073400
     14 C11         -1.2910     0.2890     1.2090 c3         1 HBP      -0.074400
     15 C14         -2.5450     0.4970     0.3700 c3         1 HBP      -0.099400
     16 C17         -3.7710     0.6380     1.2590 c3         1 HBP      -0.001700
     17 N20         -4.9970     0.8710     0.4670 na         1 HBP       0.035400
     18 C21         -5.4400     2.1360     0.3770 ca         1 HBP      -0.032300
     19 C22         -6.5320     2.4640    -0.3850 ca         1 HBP      -0.127000
     20 C23         -7.1850     1.4530    -1.0760 ca         1 HBP      -0.004000
     21 C24         -6.7230     0.1580    -0.9760 ca         1 HBP      -0.119500
     22 C25         -5.6100    -0.1350    -0.1980 ca         1 HBP      -0.003200
     23 C26         -5.0970    -1.4980    -0.0750 ce         1 HBP       0.335800
     24 N27         -5.5380    -2.3620    -0.8960 n2         1 HBP      -0.339700
     25 O28         -5.0390    -3.5850    -0.6950 oh         1 HBP      -0.325000
     26 H1A          3.5520    -1.3180     1.9140 h1         1 HBP       0.095200
     27 H1B          3.9020     0.3790     1.7400 h1         1 HBP       0.095200
     28 H6           1.0710    -0.9110     1.8970 hc         1 HBP       0.054950
     29 H7           1.3860     0.8080     1.7730 hc         1 HBP       0.054950
     30 H10A         6.4060     4.1030    -0.8140 ho         1 HBP       0.471000
     31 H8           4.2850     1.7620     0.2490 h4         1 HBP       0.038300
     32 H6A          7.2790     0.3740    -1.5460 ha         1 HBP       0.207000
     33 H4A          6.4230    -3.7010    -0.5190 ha         1 HBP       0.200500
     34 H3A          4.5120    -2.8710     0.8140 h4         1 HBP       0.198500
     35 H4           2.2800    -1.3160    -0.2390 hc         1 HBP       0.064700
     36 H3           2.5650     0.4050    -0.4230 hc         1 HBP       0.064700
     37 H5           7.8550    -2.0220    -1.7190 ha         1 HBP       0.194000
     38 H10          0.0740     0.9260    -0.3310 hc         1 HBP       0.051200
     39 H9          -0.1970    -0.8040    -0.2840 hc         1 HBP       0.051200
     40 H12         -1.4290    -0.5760     1.8660 hc         1 HBP       0.054950
     41 H13         -1.1430     1.1530     1.8640 hc         1 HBP       0.054950
     42 H15         -2.4420     1.3950    -0.2440 hc         1 HBP       0.064700
     43 H16         -2.6690    -0.3430    -0.3200 hc         1 HBP       0.064700
     44 H18         -3.9220    -0.2310     1.8970 h1         1 HBP       0.095200
     45 H19         -3.6610     1.4900     1.9260 h1         1 HBP       0.095200
     46 H21         -4.8900     2.8760     0.9370 h4         1 HBP       0.198500
     47 H22         -6.8580     3.4920    -0.4270 ha         1 HBP       0.200500
     48 H23         -8.0530     1.6720    -1.6820 ha         1 HBP       0.194000
     49 H24         -7.2210    -0.6470    -1.4940 ha         1 HBP       0.207000
     50 H26         -4.3830    -1.7560     0.7000 h4         1 HBP       0.038300
     51 H28         -5.4400    -4.1360    -1.3780 ho         1 HBP       0.471000
@<TRIPOS>BOND
     1     1    10 1   
     2     1    11 1   
     3     1    26 1   
     4     1    27 1   
     5     2    11 1   
     6     2    13 1   
     7     2    28 1   
     8     2    29 1   
     9     3     4 1   
    10     3    30 1   
    11     4     5 2   
    12     5     6 1   
    13     5    31 1   
    14     6     7 ar  
    15     6    10 2   
    16     7    12 ar  
    17     7    32 1   
    18     8     9 ar  
    19     8    12 ar  
    20     8    33 1   
    21     9    10 1   
    22     9    34 1   
    23    11    35 1   
    24    11    36 1   
    25    12    37 1   
    26    13    14 1   
    27    13    38 1   
    28    13    39 1   
    29    14    15 1   
    30    14    40 1   
    31    14    41 1   
    32    15    16 1   
    33    15    42 1   
    34    15    43 1   
    35    16    17 1   
    36    16    44 1   
    37    16    45 1   
    38    17    18 1   
    39    17    22 2   
    40    18    19 ar  
    41    18    46 1   
    42    19    20 ar  
    43    19    47 1   
    44    20    21 ar  
    45    20    48 1   
    46    21    22 ar  
    47    21    49 1   
    48    22    23 1   
    49    23    24 2   
    50    23    50 1   
    51    24    25 1   
    52    25    51 1   
@<TRIPOS>SUBSTRUCTURE
     1 HBP         1 TEMP              0 ****  ****    0 ROOT
