@<TRIPOS>MOLECULE
HBP
   51    52     1     0     0
SMALL
No Charge or Current Charge


@<TRIPOS>ATOM
      1 C1           3.7840    -0.7370     0.9980 c3         1 HBP       0.027600
      2 C5           1.2530    -0.2550     1.0040 c3         1 HBP      -0.074400
      3 O10          5.8350     3.7850     0.3810 oh         1 HBP      -0.462500
      4 N9           6.3570     2.5120     0.0830 n2         1 HBP      -0.241200
      5 C8A          5.4820     1.5510     0.1110 ce         1 HBP       0.335800
      6 C7           5.8590     0.1250    -0.1760 ca         1 HBP      -0.003200
      7 C6           7.1200    -0.1690    -0.7540 ca         1 HBP      -0.101500
      8 C4           6.5950    -2.5380    -0.7670 ca         1 HBP      -0.109000
      9 C3           5.3540    -2.2490    -0.1740 ca         1 HBP      -0.065000
     10 N2           5.0020    -0.9410     0.1810 na         1 HBP       0.056800
     11 C2           2.5170    -0.4840     0.1460 c3         1 HBP      -0.099400
     12 C5A          7.4890    -1.4940    -1.0450 ca         1 HBP       0.014000
     13 C8          -0.0130    -0.0050     0.1560 c3         1 HBP      -0.073400
     14 C11         -1.2780     0.2250     1.0120 c3         1 HBP      -0.074400
     15 C14         -2.5430     0.4740     0.1630 c3         1 HBP      -0.099400
     16 C17         -3.8080     0.7060     1.0220 c3         1 HBP       0.027600
     17 N20         -5.0280     0.9300     0.2130 na         1 HBP       0.056800
     18 C21         -5.3810     2.2460    -0.1100 ca         1 HBP      -0.065000
     19 C22         -6.6230     2.5480    -0.6940 ca         1 HBP      -0.109000
     20 C23         -7.5170     1.5110    -0.9960 ca         1 HBP       0.014000
     21 C24         -7.1470     0.1800    -0.7370 ca         1 HBP      -0.101500
     22 C25         -5.8860    -0.1280    -0.1680 ca         1 HBP      -0.003200
     23 C26         -5.5080    -1.5600     0.0850 ce         1 HBP       0.335800
     24 N27         -6.3830    -2.5200     0.0340 n2         1 HBP      -0.241200
     25 O28         -5.8600    -3.8000     0.3010 oh         1 HBP      -0.462500
     26 H1A          3.6250    -1.6310     1.6140 h1         1 HBP       0.095200
     27 H1B          3.9420     0.0930     1.6980 h1         1 HBP       0.095200
     28 H6           1.0900    -1.1290     1.6480 hc         1 HBP       0.054950
     29 H7           1.4180     0.6040     1.6670 hc         1 HBP       0.054950
     30 H10A         6.6080     4.3990     0.3200 ho         1 HBP       0.510000
     31 H8           4.4370     1.7600     0.3470 h4         1 HBP       0.038300
     32 H6A          7.8160     0.6300    -1.0030 ha         1 HBP       0.189000
     33 H4A          6.8610    -3.5650    -1.0110 ha         1 HBP       0.182500
     34 H3A          4.6390    -3.0440     0.0440 h4         1 HBP       0.180500
     35 H4           2.3530    -1.3440    -0.5160 hc         1 HBP       0.064700
     36 H3           2.6770     0.3870    -0.5010 hc         1 HBP       0.064700
     37 H5           8.4550    -1.7070    -1.5010 ha         1 HBP       0.176000
     38 H10          0.1500     0.8690    -0.4870 hc         1 HBP       0.051200
     39 H9          -0.1780    -0.8640    -0.5080 hc         1 HBP       0.051200
     40 H12         -1.4410    -0.6500     1.6550 hc         1 HBP       0.054950
     41 H13         -1.1130     1.0830     1.6760 hc         1 HBP       0.054950
     42 H15         -2.3810     1.3500    -0.4790 hc         1 HBP       0.064700
     43 H16         -2.7040    -0.3810    -0.5050 hc         1 HBP       0.064700
     44 H18         -3.9650    -0.1390     1.7030 h1         1 HBP       0.095200
     45 H19         -3.6480     1.5860     1.6590 h1         1 HBP       0.095200
     46 H21         -4.6660     3.0360     0.1260 h4         1 HBP       0.180500
     47 H22         -6.8890     3.5810    -0.9130 ha         1 HBP       0.182500
     48 H23         -8.4840     1.7340    -1.4440 ha         1 HBP       0.176000
     49 H24         -7.8430    -0.6140    -1.0030 ha         1 HBP       0.189000
     50 H26         -4.4620    -1.7740     0.3140 h4         1 HBP       0.038300
     51 H28         -6.6320    -4.4120     0.2270 ho         1 HBP       0.510000
@<TRIPOS>BOND
     1     1    10 1   
     2     1    11 1   
     3     1    26 1   
     4     1    27 1   
     5     2    11 1   
     6     2    13 1   
     7     2    28 1   
     8     2    29 1   
     9     3     4 1   
    10     3    30 1   
    11     4     5 2   
    12     5     6 1   
    13     5    31 1   
    14     6     7 ar  
    15     6    10 2   
    16     7    12 ar  
    17     7    32 1   
    18     8     9 ar  
    19     8    12 ar  
    20     8    33 1   
    21     9    10 1   
    22     9    34 1   
    23    11    35 1   
    24    11    36 1   
    25    12    37 1   
    26    13    14 1   
    27    13    38 1   
    28    13    39 1   
    29    14    15 1   
    30    14    40 1   
    31    14    41 1   
    32    15    16 1   
    33    15    42 1   
    34    15    43 1   
    35    16    17 1   
    36    16    44 1   
    37    16    45 1   
    38    17    18 1   
    39    17    22 2   
    40    18    19 ar  
    41    18    46 1   
    42    19    20 ar  
    43    19    47 1   
    44    20    21 ar  
    45    20    48 1   
    46    21    22 ar  
    47    21    49 1   
    48    22    23 1   
    49    23    24 2   
    50    23    50 1   
    51    24    25 1   
    52    25    51 1   
@<TRIPOS>SUBSTRUCTURE
     1 HBP         1 TEMP              0 ****  ****    0 ROOT
