@<TRIPOS>MOLECULE
HBQ
   37    38     1     0     0
SMALL
No Charge or Current Charge


@<TRIPOS>ATOM
      1 C1          -2.3970     0.7230     5.6570 c          1 HBQ       0.560000
      2 C2          -2.9390    -0.6020     5.0570 c6         1 HBQ       0.043700
      3 C3          -1.6340    -0.1040     2.9680 ca         1 HBQ      -0.032000
      4 C4          -1.0640     1.0320     3.5840 ca         1 HBQ      -0.065000
      5 C5          -0.0160     1.7440     2.9740 ca         1 HBQ      -0.115000
      6 C6           0.4670     1.3390     1.7200 ca         1 HBQ      -0.134000
      7 C7          -0.1110     0.2330     1.0810 ca         1 HBQ       0.164000
      8 C8          -1.1640    -0.4710     1.6850 ca         1 HBQ      -0.126000
      9 C9          -2.2330    -1.8290     5.7190 c3         1 HBQ      -0.085400
     10 C10         -2.4840    -2.0130     7.2320 c3         1 HBQ      -0.090100
     11 C12         -5.9320    -2.5630     2.9890 c3         1 HBQ       0.199300
     12 C13         -5.4130    -3.9270     2.4800 c3         1 HBQ      -0.109100
     13 C14         -7.0060    -2.7180     4.0790 c3         1 HBQ      -0.109100
     14 F1           0.3430    -0.1510    -0.1320 f          1 HBQ      -0.174000
     15 N1          -2.8310    -0.6840     3.5580 n          1 HBQ      -0.228400
     16 N2          -1.5360     1.4290     4.8480 ns         1 HBQ      -0.139000
     17 O1          -2.7600     1.1580     6.7440 o          1 HBQ      -0.533000
     18 O2          -4.8360    -1.8560     3.5960 os         1 HBQ      -0.463100
     19 O3          -3.9800    -1.2020     1.5790 o          1 HBQ      -0.517000
     20 H2          -3.9950    -0.6070     5.3580 h1         1 HBQ       0.111700
     21 H5           0.4250     2.6070     3.4700 ha         1 HBQ       0.123000
     22 H6           1.2780     1.8810     1.2410 ha         1 HBQ       0.137000
     23 H8          -1.5810    -1.3210     1.1550 ha         1 HBQ       0.154000
     24 H91         -1.1510    -1.7750     5.5430 hc         1 HBQ       0.053700
     25 H92         -2.5730    -2.7440     5.2180 hc         1 HBQ       0.053700
     26 H101        -2.0330    -1.2000     7.8120 hc         1 HBQ       0.042033
     27 H102        -3.5590    -2.0430     7.4470 hc         1 HBQ       0.042033
     28 H103        -2.0410    -2.9550     7.5770 hc         1 HBQ       0.042033
     29 H12         -6.3630    -1.9920     2.1540 h1         1 HBQ       0.068700
     30 H131        -6.2430    -4.5300     2.0940 hc         1 HBQ       0.050033
     31 H132        -4.6890    -3.7980     1.6680 hc         1 HBQ       0.050033
     32 H133        -4.9310    -4.4860     3.2900 hc         1 HBQ       0.050033
     33 H141        -7.8770    -3.2570     3.6870 hc         1 HBQ       0.050033
     34 H142        -7.3440    -1.7340     4.4270 hc         1 HBQ       0.050033
     35 H143        -6.6130    -3.2740     4.9390 hc         1 HBQ       0.050033
     36 HN2         -1.1820     2.3030     5.2140 hn         1 HBQ       0.164000
     37 C11         -3.8950    -1.2530     2.7980 c          1 HBQ       0.661100
@<TRIPOS>BOND
     1     1     2 1   
     2     1    16 1   
     3     1    17 2   
     4     2     9 1   
     5     2    15 1   
     6     2    20 1   
     7     3     4 ar  
     8     3     8 ar  
     9     3    15 1   
    10     4     5 ar  
    11     4    16 1   
    12     5     6 ar  
    13     5    21 1   
    14     6     7 ar  
    15     6    22 1   
    16     7     8 ar  
    17     7    14 1   
    18     8    23 1   
    19     9    10 1   
    20     9    24 1   
    21     9    25 1   
    22    10    26 1   
    23    10    27 1   
    24    10    28 1   
    25    11    12 1   
    26    11    13 1   
    27    11    18 1   
    28    11    29 1   
    29    12    30 1   
    30    12    31 1   
    31    12    32 1   
    32    13    33 1   
    33    13    34 1   
    34    13    35 1   
    35    15    37 1   
    36    16    36 1   
    37    18    37 1   
    38    19    37 2   
@<TRIPOS>SUBSTRUCTURE
     1 HBQ         1 TEMP              0 ****  ****    0 ROOT
