@<TRIPOS>MOLECULE
HBQ
   37    38     1     0     0
SMALL
abcg2


@<TRIPOS>ATOM
      1 C1          -2.7350     0.6730     5.5610 c          1 HBQ       0.560000
      2 C2          -2.9440    -0.7420     5.0490 c6         1 HBQ       0.043700
      3 C3          -1.8150    -0.1370     2.9930 ca         1 HBQ      -0.032000
      4 C4          -1.2760     0.9690     3.6520 ca         1 HBQ      -0.065000
      5 C5          -0.1480     1.6020     3.1460 ca         1 HBQ      -0.115000
      6 C6           0.4500     1.1480     1.9820 ca         1 HBQ      -0.134000
      7 C7          -0.0860     0.0360     1.3630 ca         1 HBQ       0.164000
      8 C8          -1.1960    -0.6240     1.8480 ca         1 HBQ      -0.126000
      9 C9          -1.8990    -1.7170     5.6030 c3         1 HBQ      -0.085400
     10 C10         -1.9280    -1.8510     7.1180 c3         1 HBQ      -0.090100
     11 C12         -5.9870    -2.4970     2.9190 c3         1 HBQ       0.199300
     12 C13         -5.5760    -3.8660     2.4140 c3         1 HBQ      -0.109100
     13 C14         -7.0830    -2.5630     3.9610 c3         1 HBQ      -0.109100
     14 F1           0.4990    -0.4340     0.2480 f          1 HBQ      -0.174000
     15 N1          -2.9400    -0.7310     3.5880 n          1 HBQ      -0.228400
     16 N2          -1.8950     1.4250     4.8130 ns         1 HBQ      -0.139000
     17 O1          -3.2600     1.0860     6.5780 o          1 HBQ      -0.533000
     18 O2          -4.8620    -1.8570     3.5670 os         1 HBQ      -0.463100
     19 O3          -4.0110    -1.1350     1.6190 o          1 HBQ      -0.517000
     20 H2          -3.9270    -1.0500     5.3940 h1         1 HBQ       0.111700
     21 H5           0.2600     2.4610     3.6630 ha         1 HBQ       0.123000
     22 H6           1.3200     1.6460     1.5760 ha         1 HBQ       0.137000
     23 H8          -1.5650    -1.5000     1.3370 ha         1 HBQ       0.154000
     24 H91         -0.8980    -1.4250     5.2730 hc         1 HBQ       0.053700
     25 H92         -2.1060    -2.6880     5.1470 hc         1 HBQ       0.053700
     26 H101        -1.6390    -0.9300     7.6230 hc         1 HBQ       0.042033
     27 H102        -2.9210    -2.1300     7.4730 hc         1 HBQ       0.042033
     28 H103        -1.2330    -2.6280     7.4350 hc         1 HBQ       0.042033
     29 H12         -6.3140    -1.8740     2.0840 h1         1 HBQ       0.068700
     30 H131        -6.4330    -4.3590     1.9560 hc         1 HBQ       0.050033
     31 H132        -4.7910    -3.8020     1.6610 hc         1 HBQ       0.050033
     32 H133        -5.2240    -4.4950     3.2330 hc         1 HBQ       0.050033
     33 H141        -7.9680    -3.0280     3.5280 hc         1 HBQ       0.050033
     34 H142        -7.3640    -1.5690     4.3080 hc         1 HBQ       0.050033
     35 H143        -6.7780    -3.1600     4.8220 hc         1 HBQ       0.050033
     36 HN2         -1.6610     2.3480     5.1540 hn         1 HBQ       0.164000
     37 C11         -3.9580    -1.2420     2.8220 c          1 HBQ       0.661100
@<TRIPOS>BOND
     1     1     2 1   
     2     1    16 1   
     3     1    17 2   
     4     2     9 1   
     5     2    15 1   
     6     2    20 1   
     7     3     4 ar  
     8     3     8 ar  
     9     3    15 1   
    10     4     5 ar  
    11     4    16 1   
    12     5     6 ar  
    13     5    21 1   
    14     6     7 ar  
    15     6    22 1   
    16     7     8 ar  
    17     7    14 1   
    18     8    23 1   
    19     9    10 1   
    20     9    24 1   
    21     9    25 1   
    22    10    26 1   
    23    10    27 1   
    24    10    28 1   
    25    11    12 1   
    26    11    13 1   
    27    11    18 1   
    28    11    29 1   
    29    12    30 1   
    30    12    31 1   
    31    12    32 1   
    32    13    33 1   
    33    13    34 1   
    34    13    35 1   
    35    15    37 1   
    36    16    36 1   
    37    18    37 1   
    38    19    37 2   
@<TRIPOS>SUBSTRUCTURE
     1 HBQ         1 TEMP              0 ****  ****    0 ROOT
