@<TRIPOS>MOLECULE
HBR
   14    13     1     0     0
SMALL
No Charge or Current Charge


@<TRIPOS>ATOM
      1 C4           1.1600    -1.2660    -0.6640 c3         1 HBR      -0.127100
      2 C3           0.6840    -0.2220     0.3710 c3         1 HBR       0.067300
      3 O7           1.6370     0.8670     0.3970 oh         1 HBR      -0.629000
      4 C2          -0.7870     0.2490     0.1010 c          1 HBR       0.570100
      5 C1          -1.8950    -0.7450     0.4630 c3         1 HBR      -0.201100
      6 O2          -1.0670     1.3790    -0.2890 o          1 HBR      -0.484100
      7 H41          2.1800    -1.6000    -0.4410 hc         1 HBR       0.046033
      8 H42          0.5110    -2.1500    -0.6540 hc         1 HBR       0.046033
      9 H43          1.1480    -0.8440    -1.6760 hc         1 HBR       0.046033
     10 H3           0.6740    -0.7130     1.3540 h1         1 HBR       0.040700
     11 HO7          2.5160     0.4870     0.6220 ho         1 HBR       0.443000
     12 H11         -1.6940    -1.1670     1.4550 hc         1 HBR       0.061033
     13 H12         -2.8960    -0.3030     0.4010 hc         1 HBR       0.061033
     14 H13         -1.8090    -1.6230    -0.1850 hc         1 HBR       0.061033
@<TRIPOS>BOND
     1     1     2 1   
     2     1     7 1   
     3     1     8 1   
     4     1     9 1   
     5     2     3 1   
     6     2     4 1   
     7     2    10 1   
     8     3    11 1   
     9     4     5 1   
    10     4     6 2   
    11     5    12 1   
    12     5    13 1   
    13     5    14 1   
@<TRIPOS>SUBSTRUCTURE
     1 HBR         1 TEMP              0 ****  ****    0 ROOT
