@<TRIPOS>MOLECULE
HBR
   14    13     1     0     0
SMALL
abcg2


@<TRIPOS>ATOM
      1 C4           1.0680    -1.3240    -0.5320 c3         1 HBR      -0.127100
      2 C3           0.7040    -0.1850     0.4200 c3         1 HBR       0.067300
      3 O7           1.5460     0.9250     0.2730 oh         1 HBR      -0.629000
      4 C2          -0.7220     0.2720     0.1850 c          1 HBR       0.570100
      5 C1          -1.7830    -0.7810     0.3500 c3         1 HBR      -0.201100
      6 O2          -0.9820     1.4090    -0.1300 o          1 HBR      -0.484100
      7 H41          2.0930    -1.6490    -0.3500 hc         1 HBR       0.046033
      8 H42          0.4250    -2.1920    -0.3870 hc         1 HBR       0.046033
      9 H43          0.9880    -1.0070    -1.5730 hc         1 HBR       0.046033
     10 H3           0.7360    -0.5800     1.4490 h1         1 HBR       0.040700
     11 HO7          2.4490     0.6330     0.4320 ho         1 HBR       0.443000
     12 H11         -1.5420    -1.4860     1.1450 hc         1 HBR       0.061033
     13 H12         -2.7520    -0.3260     0.5470 hc         1 HBR       0.061033
     14 H13         -1.8650    -1.3580    -0.5740 hc         1 HBR       0.061033
@<TRIPOS>BOND
     1     1     2 1   
     2     1     7 1   
     3     1     8 1   
     4     1     9 1   
     5     2     3 1   
     6     2     4 1   
     7     2    10 1   
     8     3    11 1   
     9     4     5 1   
    10     4     6 2   
    11     5    12 1   
    12     5    13 1   
    13     5    14 1   
@<TRIPOS>SUBSTRUCTURE
     1 HBR         1 TEMP              0 ****  ****    0 ROOT
