@<TRIPOS>MOLECULE
HBS
   14    13     1     0     0
SMALL
No Charge or Current Charge


@<TRIPOS>ATOM
      1 C4          -1.1470     1.2510     0.6860 c3         1 HBS      -0.127100
      2 C3          -0.6860     0.1970    -0.3450 c3         1 HBS       0.067300
      3 O7          -1.6540    -0.8780    -0.3680 oh         1 HBS      -0.629000
      4 C2           0.7780    -0.2930    -0.0730 c          1 HBS       0.570100
      5 C1           1.9000     0.6840    -0.4380 c3         1 HBS      -0.201100
      6 O2           1.0420    -1.4260     0.3210 o          1 HBS      -0.484100
      7 H41         -0.4860     2.1260     0.6740 hc         1 HBS       0.045700
      8 H42         -2.1630     1.5990     0.4620 hc         1 HBS       0.045700
      9 H43         -1.1420     0.8320     1.7000 hc         1 HBS       0.045700
     10 H3          -0.6680     0.6850    -1.3300 h1         1 HBS       0.040700
     11 HO7         -2.5270    -0.4870    -0.5940 ho         1 HBS       0.443000
     12 H11          1.7060     1.1060    -1.4300 hc         1 HBS       0.060700
     13 H12          1.8260     1.5660     0.2090 hc         1 HBS       0.060700
     14 H13          2.8950     0.2290    -0.3730 hc         1 HBS       0.060700
@<TRIPOS>BOND
     1     1     2 1   
     2     1     7 1   
     3     1     8 1   
     4     1     9 1   
     5     2     3 1   
     6     2     4 1   
     7     2    10 1   
     8     3    11 1   
     9     4     5 1   
    10     4     6 2   
    11     5    12 1   
    12     5    13 1   
    13     5    14 1   
@<TRIPOS>SUBSTRUCTURE
     1 HBS         1 TEMP              0 ****  ****    0 ROOT
