@<TRIPOS>MOLECULE
HBS
   14    13     1     0     0
SMALL
abcg2


@<TRIPOS>ATOM
      1 C4          -1.0550     1.3080     0.5550 c3         1 HBS      -0.127100
      2 C3          -0.7060     0.1610    -0.3940 c3         1 HBS       0.067300
      3 O7          -1.5640    -0.9360    -0.2460 oh         1 HBS      -0.629000
      4 C2           0.7130    -0.3150    -0.1540 c          1 HBS       0.570100
      5 C1           1.7890     0.7210    -0.3250 c3         1 HBS      -0.201100
      6 O2           0.9560    -1.4540     0.1650 o          1 HBS      -0.484100
      7 H41         -0.4030     2.1680     0.4070 hc         1 HBS       0.045700
      8 H42         -2.0770     1.6440     0.3730 hc         1 HBS       0.045700
      9 H43         -0.9790     0.9930     1.5970 hc         1 HBS       0.045700
     10 H3          -0.7290     0.5540    -1.4230 h1         1 HBS       0.040700
     11 HO7         -2.4620    -0.6320    -0.4060 ho         1 HBS       0.443000
     12 H11          1.5600     1.4230    -1.1270 hc         1 HBS       0.060700
     13 H12          1.8770     1.3040     0.5950 hc         1 HBS       0.060700
     14 H13          2.7520     0.2520    -0.5170 hc         1 HBS       0.060700
@<TRIPOS>BOND
     1     1     2 1   
     2     1     7 1   
     3     1     8 1   
     4     1     9 1   
     5     2     3 1   
     6     2     4 1   
     7     2    10 1   
     8     3    11 1   
     9     4     5 1   
    10     4     6 2   
    11     5    12 1   
    12     5    13 1   
    13     5    14 1   
@<TRIPOS>SUBSTRUCTURE
     1 HBS         1 TEMP              0 ****  ****    0 ROOT
