@<TRIPOS>MOLECULE
HBT
   42    44     1     0     0
SMALL
abcg2


@<TRIPOS>ATOM
      1 O2         -12.4710   -24.6030    -1.8400 o          1 HBT      -0.381000
      2 N2         -12.8610   -25.0530    -2.9070 no         1 HBT       0.674200
      3 O3         -12.1960   -25.0660    -3.9340 o          1 HBT      -0.381000
      4 C13        -14.2290   -25.5810    -2.9710 ca         1 HBT      -0.114200
      5 C12        -15.2090   -24.8930    -2.2760 ca         1 HBT      -0.062000
      6 C11        -16.5290   -25.3120    -2.3860 ca         1 HBT      -0.095000
      7 C10        -16.8440   -26.4120    -3.1740 ca         1 HBT      -0.079000
      8 C9         -15.8420   -27.1010    -3.8520 ca         1 HBT      -0.084000
      9 C8         -14.5130   -26.6960    -3.7610 ca         1 HBT      -0.086600
     10 C7         -13.4350   -27.5350    -4.3770 c          1 HBT       0.618700
     11 O1         -12.5000   -27.9730    -3.7150 o          1 HBT      -0.563100
     12 N1         -13.6130   -27.8070    -5.6900 ns         1 HBT      -0.372100
     13 C6         -12.7990   -28.6020    -6.4700 cc         1 HBT      -0.001400
     14 C14        -12.9800   -28.8190    -7.8290 cd         1 HBT      -0.255600
     15 C15        -14.0770   -28.1340    -8.5450 c          1 HBT       0.649700
     16 N3         -14.0770   -28.1450    -9.8910 nt         1 HBT      -0.590000
     17 O4         -14.9880   -27.5450    -7.9310 o          1 HBT      -0.671100
     18 S1         -11.4200   -29.4350    -5.8480 ss         1 HBT       0.302000
     19 C5         -11.0850   -30.1200    -7.4080 cc         1 HBT      -0.245300
     20 C4          -9.9300   -31.0510    -7.6120 c6         1 HBT       0.002900
     21 C3          -9.6270   -31.2260    -9.1050 c6         1 HBT      -0.060700
     22 C1          -8.6310   -32.3580    -9.3330 c3         1 HBT      -0.087100
     23 C2         -10.9360   -31.4520    -9.8620 c6         1 HBT      -0.069400
     24 C17        -11.8770   -30.2470    -9.7660 c6         1 HBT      -0.016100
     25 C16        -11.9800   -29.7210    -8.3570 cd         1 HBT      -0.053300
     26 H12        -14.9430   -24.0280    -1.6860 ha         1 HBT       0.151000
     27 H11        -17.3070   -24.7750    -1.8600 ha         1 HBT       0.132000
     28 H10        -17.8700   -26.7440    -3.2590 ha         1 HBT       0.130000
     29 H9         -16.0890   -27.9760    -4.4380 ha         1 HBT       0.138000
     30 HN1        -14.4000   -27.4240    -6.2200 hn         1 HBT       0.382500
     31 HN3        -14.8010   -27.6290   -10.3670 hn         1 HBT       0.319000
     32 HN3A       -13.3110   -28.4970   -10.4370 hn         1 HBT       0.319000
     33 H4          -9.0440   -30.6800    -7.0900 hc         1 HBT       0.052200
     34 H4A        -10.1590   -32.0300    -7.1740 hc         1 HBT       0.052200
     35 H3          -9.1840   -30.2920    -9.4700 hc         1 HBT       0.051700
     36 H1          -8.3700   -32.4420   -10.3900 hc         1 HBT       0.035700
     37 H1A         -7.7100   -32.1920    -8.7690 hc         1 HBT       0.035700
     38 H1B         -9.0540   -33.3140    -9.0120 hc         1 HBT       0.035700
     39 H2         -10.7300   -31.6630   -10.9140 hc         1 HBT       0.044700
     40 H2A        -11.4320   -32.3370    -9.4480 hc         1 HBT       0.044700
     41 H17        -11.5060   -29.4560   -10.4300 hc         1 HBT       0.046200
     42 H17A       -12.8650   -30.5330   -10.1340 hc         1 HBT       0.046200
@<TRIPOS>BOND
     1     1     2 1   
     2     2     3 1   
     3     2     4 1   
     4     4     5 ar  
     5     4     9 ar  
     6     5     6 ar  
     7     5    26 1   
     8     6     7 ar  
     9     6    27 1   
    10     7     8 ar  
    11     7    28 1   
    12     8     9 ar  
    13     8    29 1   
    14     9    10 1   
    15    10    11 2   
    16    10    12 1   
    17    12    13 1   
    18    12    30 1   
    19    13    14 2   
    20    13    18 1   
    21    14    15 1   
    22    14    25 1   
    23    15    16 1   
    24    15    17 2   
    25    16    31 1   
    26    16    32 1   
    27    18    19 1   
    28    19    20 1   
    29    19    25 2   
    30    20    21 1   
    31    20    33 1   
    32    20    34 1   
    33    21    22 1   
    34    21    23 1   
    35    21    35 1   
    36    22    36 1   
    37    22    37 1   
    38    22    38 1   
    39    23    24 1   
    40    23    39 1   
    41    23    40 1   
    42    24    25 1   
    43    24    41 1   
    44    24    42 1   
@<TRIPOS>SUBSTRUCTURE
     1 HBT         1 TEMP              0 ****  ****    0 ROOT
