@<TRIPOS>MOLECULE
HBT
   42    44     1     0     0
SMALL
No Charge or Current Charge


@<TRIPOS>ATOM
      1 O2         -12.7410   -25.2030    -0.9440 o          1 HBT      -0.381000
      2 N2         -12.8720   -25.2620    -2.1740 no         1 HBT       0.674200
      3 O3         -12.0350   -24.8240    -2.9750 o          1 HBT      -0.381000
      4 C13        -14.2310   -25.5700    -2.7060 ca         1 HBT      -0.114200
      5 C12        -15.3280   -24.8540    -2.1770 ca         1 HBT      -0.062000
      6 C11        -16.6210   -25.0530    -2.6850 ca         1 HBT      -0.095000
      7 C10        -16.8290   -25.9680    -3.7250 ca         1 HBT      -0.079000
      8 C9         -15.7500   -26.6930    -4.2550 ca         1 HBT      -0.084000
      9 C8         -14.4340   -26.5140    -3.7570 ca         1 HBT      -0.086600
     10 C7         -13.2950   -27.3580    -4.3080 c          1 HBT       0.618700
     11 O1         -12.3420   -27.6990    -3.6210 o          1 HBT      -0.563100
     12 N1         -13.4480   -27.7760    -5.6160 ns         1 HBT      -0.372100
     13 C6         -12.6480   -28.6210    -6.3830 cc         1 HBT      -0.001400
     14 C14        -12.9590   -28.9370    -7.7010 cd         1 HBT      -0.255600
     15 C15        -14.1840   -28.3560    -8.3610 c          1 HBT       0.649700
     16 N3         -14.3830   -28.6280    -9.6610 nt         1 HBT      -0.590000
     17 O4         -15.0000   -27.6420    -7.7980 o          1 HBT      -0.671100
     18 S1         -11.1540   -29.3900    -5.8420 ss         1 HBT       0.302000
     19 C5         -10.9450   -30.1420    -7.4090 cc         1 HBT      -0.245300
     20 C4          -9.7700   -31.0350    -7.7390 c6         1 HBT       0.002900
     21 C3          -9.6040   -31.1980    -9.2700 c6         1 HBT      -0.060700
     22 C1          -8.5220   -32.2560    -9.6170 c3         1 HBT      -0.087100
     23 C2         -10.9710   -31.5450    -9.9060 c6         1 HBT      -0.069400
     24 C17        -12.0070   -30.4140    -9.6850 c6         1 HBT      -0.016100
     25 C16        -11.9750   -29.8370    -8.2720 cd         1 HBT      -0.053300
     26 H12        -15.1770   -24.1280    -1.3800 ha         1 HBT       0.151000
     27 H11        -17.4590   -24.4940    -2.2740 ha         1 HBT       0.132000
     28 H10        -17.8330   -26.1250    -4.1150 ha         1 HBT       0.130000
     29 H9         -15.9610   -27.4210    -5.0360 ha         1 HBT       0.138000
     30 HN1        -14.2720   -27.4050    -6.0820 hn         1 HBT       0.382500
     31 HN3        -15.1920   -28.2420   -10.1220 hn         1 HBT       0.319000
     32 HN3A       -13.7190   -29.1900   -10.1640 hn         1 HBT       0.319000
     33 H4          -8.8430   -30.6290    -7.3100 hc         1 HBT       0.052200
     34 H4A         -9.9150   -32.0210    -7.2760 hc         1 HBT       0.052200
     35 H3          -9.2540   -30.2440    -9.6910 hc         1 HBT       0.051700
     36 H1          -8.3800   -32.3360   -10.7010 hc         1 HBT       0.035700
     37 H1A         -7.5540   -31.9890    -9.1760 hc         1 HBT       0.035700
     38 H1B         -8.7980   -33.2490    -9.2420 hc         1 HBT       0.035700
     39 H2         -10.8570   -31.7310   -10.9830 hc         1 HBT       0.044700
     40 H2A        -11.3510   -32.4800    -9.4690 hc         1 HBT       0.044700
     41 H17        -11.8130   -29.6140   -10.4120 hc         1 HBT       0.046200
     42 H17A       -12.9980   -30.8270    -9.9160 hc         1 HBT       0.046200
@<TRIPOS>BOND
     1     1     2 1   
     2     2     3 1   
     3     2     4 1   
     4     4     5 ar  
     5     4     9 ar  
     6     5     6 ar  
     7     5    26 1   
     8     6     7 ar  
     9     6    27 1   
    10     7     8 ar  
    11     7    28 1   
    12     8     9 ar  
    13     8    29 1   
    14     9    10 1   
    15    10    11 2   
    16    10    12 1   
    17    12    13 1   
    18    12    30 1   
    19    13    14 2   
    20    13    18 1   
    21    14    15 1   
    22    14    25 1   
    23    15    16 1   
    24    15    17 2   
    25    16    31 1   
    26    16    32 1   
    27    18    19 1   
    28    19    20 1   
    29    19    25 2   
    30    20    21 1   
    31    20    33 1   
    32    20    34 1   
    33    21    22 1   
    34    21    23 1   
    35    21    35 1   
    36    22    36 1   
    37    22    37 1   
    38    22    38 1   
    39    23    24 1   
    40    23    39 1   
    41    23    40 1   
    42    24    25 1   
    43    24    41 1   
    44    24    42 1   
@<TRIPOS>SUBSTRUCTURE
     1 HBT         1 TEMP              0 ****  ****    0 ROOT
