@<TRIPOS>MOLECULE
HBU
   18    17     1     0     0
SMALL
abcg2


@<TRIPOS>ATOM
      1 O1          -0.3800     0.7140    -3.9460 o          1 HBU      -0.749000
      2 C2          -0.1710    -0.1860    -3.1100 c          1 HBU       0.735000
      3 O3           0.6290    -1.1350    -3.2120 o          1 HBU      -0.749000
      4 C4          -1.0010    -0.1540    -1.8150 c3         1 HBU      -0.303400
      5 C5          -0.2060     0.2540    -0.6000 c          1 HBU       0.624100
      6 O8           0.9350     0.6510    -0.6800 o          1 HBU      -0.522100
      7 C9          -0.9400     0.1890     0.7150 c3         1 HBU      -0.541400
      8 P10          0.1540     0.1340     2.2050 p5         1 HBU       1.433000
      9 O13          0.7700     1.4980     2.4330 o          1 HBU      -0.832500
     10 O14          1.0510    -1.0810     2.0960 o          1 HBU      -0.832500
     11 C15         -1.0840    -0.1720     3.5220 c3         1 HBU      -0.463100
     12 HC41        -1.4410    -1.1370    -1.6170 hc         1 HBU       0.022700
     13 HC42        -1.8470     0.5400    -1.8790 hc         1 HBU       0.022700
     14 HC91        -1.6200    -0.6670     0.7100 hc         1 HBU       0.041700
     15 HC92        -1.5900     1.0710     0.7670 hc         1 HBU       0.041700
     16 H151        -0.5770    -0.2150     4.4890 hc         1 HBU       0.024700
     17 H152        -1.8300     0.6230     3.5730 hc         1 HBU       0.024700
     18 H153        -1.6050    -1.1190     3.3790 hc         1 HBU       0.024700
@<TRIPOS>BOND
     1     1     2 1   
     2     2     3 1   
     3     2     4 1   
     4     4     5 1   
     5     4    12 1   
     6     4    13 1   
     7     5     6 2   
     8     5     7 1   
     9     7     8 1   
    10     7    14 1   
    11     7    15 1   
    12     8     9 1   
    13     8    10 1   
    14     8    11 1   
    15    11    16 1   
    16    11    17 1   
    17    11    18 1   
@<TRIPOS>SUBSTRUCTURE
     1 HBU         1 TEMP              0 ****  ****    0 ROOT
