@<TRIPOS>MOLECULE
HBU
   18    17     1     0     0
SMALL
No Charge or Current Charge


@<TRIPOS>ATOM
      1 O1           0.8360    -0.6040    -2.8430 o          1 HBU      -0.749000
      2 C2          -0.0370    -0.9470    -2.0620 c          1 HBU       0.735000
      3 O3          -0.0500    -2.0230    -1.4890 o          1 HBU      -0.749000
      4 C4          -1.1770     0.0130    -1.7980 c3         1 HBU      -0.303400
      5 C5          -0.7220     0.9240    -0.6650 c          1 HBU       0.624100
      6 O8          -0.0410     1.9160    -0.8850 o          1 HBU      -0.522100
      7 C9          -1.3140     0.6830     0.7020 c3         1 HBU      -0.541400
      8 P10          0.0960     0.4060     1.7900 p5         1 HBU       1.433000
      9 O13          0.5110     1.6920     2.4290 o          1 HBU      -0.832500
     10 O14          1.2110    -0.3010     1.0930 o          1 HBU      -0.832500
     11 C15         -0.6140    -0.6970     3.0750 c3         1 HBU      -0.463100
     12 HC41        -2.0530    -0.5490    -1.4540 hc         1 HBU       0.022700
     13 HC42        -1.3290     0.6650    -2.6670 hc         1 HBU       0.022700
     14 HC91        -1.9720    -0.1910     0.7330 hc         1 HBU       0.041700
     15 HC92        -1.8280     1.5780     1.0660 hc         1 HBU       0.041700
     16 H151         0.1380    -0.9020     3.8450 hc         1 HBU       0.024700
     17 H152        -1.4810    -0.2150     3.5390 hc         1 HBU       0.024700
     18 H153        -0.9290    -1.6420     2.6210 hc         1 HBU       0.024700
@<TRIPOS>BOND
     1     1     2 1   
     2     2     3 1   
     3     2     4 1   
     4     4     5 1   
     5     4    12 1   
     6     4    13 1   
     7     5     6 2   
     8     5     7 1   
     9     7     8 1   
    10     7    14 1   
    11     7    15 1   
    12     8     9 1   
    13     8    10 1   
    14     8    11 1   
    15    11    16 1   
    16    11    17 1   
    17    11    18 1   
@<TRIPOS>SUBSTRUCTURE
     1 HBU         1 TEMP              0 ****  ****    0 ROOT
