@<TRIPOS>MOLECULE
HBV
   52    55     1     0     0
SMALL
No Charge or Current Charge


@<TRIPOS>ATOM
      1 C10         -2.1240    -1.4200    -0.5770 c3         1 HBV       0.184800
      2 C13         -5.7390     0.2040    -0.4120 c6         1 HBV      -0.058700
      3 C01         -0.3840    -1.7470     1.1680 c3         1 HBV       0.159100
      4 C02          0.2690    -1.5420    -1.2010 c3         1 HBV       0.223100
      5 C03          1.6840    -1.0510    -0.8990 ca         1 HBV      -0.098300
      6 C04          2.7410    -1.9500    -0.6590 ca         1 HBV       0.164000
      7 C05          4.0330    -1.4750    -0.3840 ca         1 HBV      -0.101000
      8 C06          4.3050    -0.0870    -0.3400 ca         1 HBV      -0.132600
      9 C07          5.7160     0.3880    -0.0390 c          1 HBV       0.607700
     10 C08          3.2370     0.8110    -0.5850 ca         1 HBV      -0.108000
     11 C11         -3.2070    -0.3290    -0.1540 c6         1 HBV      -0.044000
     12 C09          1.9450     0.3310    -0.8600 ca         1 HBV      -0.075000
     13 C12         -4.6070    -0.8290    -0.6810 c6         1 HBV      -0.061733
     14 C14         -5.3320     1.5650    -1.1000 c6         1 HBV      -0.067733
     15 C15         -3.9460     2.1120    -0.5640 c6         1 HBV      -0.058700
     16 C16         -4.0530     2.3470     0.9740 c6         1 HBV      -0.067733
     17 C17         -4.4210     1.0190     1.7040 c6         1 HBV      -0.058700
     18 C18         -3.3270    -0.0440     1.4080 c6         1 HBV      -0.061733
     19 C19         -5.7960     0.4770     1.1400 c6         1 HBV      -0.067733
     20 C20         -2.8600     1.0350    -0.8530 c6         1 HBV      -0.061733
     21 F01          2.5280    -3.2850    -0.6860 f          1 HBV      -0.176000
     22 N01         -0.7170    -1.1650    -0.1570 n3         1 HBV      -0.740600
     23 N02          5.9080     1.7650     0.0420 ns         1 HBV      -0.374400
     24 O01          7.1420     2.3190     0.5650 oh         1 HBV      -0.431100
     25 O02          6.6450    -0.3970     0.1140 o          1 HBV      -0.556100
     26 H1          -2.4510    -2.3980    -0.1960 h1         1 HBV       0.033700
     27 H2          -2.1730    -1.4920    -1.6720 h1         1 HBV       0.033700
     28 H3          -6.7060    -0.1580    -0.7880 hc         1 HBV       0.047367
     29 H4          -0.3520    -2.8440     1.1110 h1         1 HBV       0.032367
     30 H5           0.5970    -1.3960     1.5150 h1         1 HBV       0.032367
     31 H6          -1.1190    -1.4760     1.9330 h1         1 HBV       0.032367
     32 H7          -0.0270    -1.1040    -2.1640 h1         1 HBV       0.047200
     33 H8           0.2670    -2.6310    -1.3420 h1         1 HBV       0.047200
     34 H9           4.8260    -2.1970    -0.2020 ha         1 HBV       0.154000
     35 H10          3.3890     1.8870    -0.5700 ha         1 HBV       0.119000
     36 H11          1.1360     1.0370    -1.0400 ha         1 HBV       0.131000
     37 H12         -4.8640    -1.7860    -0.2060 hc         1 HBV       0.040200
     38 H13         -4.5520    -1.0320    -1.7600 hc         1 HBV       0.040200
     39 H14         -5.2790     1.4270    -2.1890 hc         1 HBV       0.038367
     40 H15         -6.1160     2.3150    -0.9290 hc         1 HBV       0.038367
     41 H16         -3.6900     3.0530    -1.0720 hc         1 HBV       0.047367
     42 H17         -3.1030     2.7400     1.3620 hc         1 HBV       0.038367
     43 H18         -4.8120     3.1140     1.1850 hc         1 HBV       0.038367
     44 H19         -4.4970     1.1910     2.7870 hc         1 HBV       0.047367
     45 H20         -3.5520    -0.9760     1.9450 hc         1 HBV       0.040200
     46 H21         -2.3690     0.3200     1.8000 hc         1 HBV       0.040200
     47 H22         -6.5940     1.2000     1.3590 hc         1 HBV       0.038367
     48 H23         -6.0750    -0.4460     1.6680 hc         1 HBV       0.038367
     49 H24         -1.8820     1.3980    -0.5080 hc         1 HBV       0.040200
     50 H25         -2.7650     0.8900    -1.9380 hc         1 HBV       0.040200
     51 H27          5.0970     2.3780     0.0680 hn         1 HBV       0.333500
     52 H28          7.4040     2.9850    -0.1150 ho         1 HBV       0.450000
@<TRIPOS>BOND
     1     1    11 1   
     2     1    22 1   
     3     1    26 1   
     4     1    27 1   
     5     2    13 1   
     6     2    14 1   
     7     2    19 1   
     8     2    28 1   
     9     3    22 1   
    10     3    29 1   
    11     3    30 1   
    12     3    31 1   
    13     4     5 1   
    14     4    22 1   
    15     4    32 1   
    16     4    33 1   
    17     5     6 ar  
    18     5    12 ar  
    19     6     7 ar  
    20     6    21 1   
    21     7     8 ar  
    22     7    34 1   
    23     8     9 1   
    24     8    10 ar  
    25     9    23 1   
    26     9    25 2   
    27    10    12 ar  
    28    10    35 1   
    29    11    13 1   
    30    11    18 1   
    31    11    20 1   
    32    12    36 1   
    33    13    37 1   
    34    13    38 1   
    35    14    15 1   
    36    14    39 1   
    37    14    40 1   
    38    15    16 1   
    39    15    20 1   
    40    15    41 1   
    41    16    17 1   
    42    16    42 1   
    43    16    43 1   
    44    17    18 1   
    45    17    19 1   
    46    17    44 1   
    47    18    45 1   
    48    18    46 1   
    49    19    47 1   
    50    19    48 1   
    51    20    49 1   
    52    20    50 1   
    53    23    24 1   
    54    23    51 1   
    55    24    52 1   
@<TRIPOS>SUBSTRUCTURE
     1 HBV         1 TEMP              0 ****  ****    0 ROOT
