@<TRIPOS>MOLECULE
HBV
   52    55     1     0     0
SMALL
abcg2


@<TRIPOS>ATOM
      1 C10         -2.2150    -1.6550    -0.3400 c3         1 HBV       0.184800
      2 C13         -5.5050     0.3530    -0.2420 c6         1 HBV      -0.058700
      3 C01         -0.3300    -2.2040     1.0800 c3         1 HBV       0.159100
      4 C02          0.0480    -1.5350    -1.2000 c3         1 HBV       0.223100
      5 C03          1.4170    -0.9650    -0.9320 ca         1 HBV      -0.098300
      6 C04          2.5730    -1.7280    -0.9400 ca         1 HBV       0.164000
      7 C05          3.8260    -1.2040    -0.6930 ca         1 HBV      -0.101000
      8 C06          3.9460     0.1480    -0.4000 ca         1 HBV      -0.132600
      9 C07          5.3190     0.6790    -0.1490 c          1 HBV       0.607700
     10 C08          2.8040     0.9490    -0.3860 ca         1 HBV      -0.108000
     11 C11         -3.1150    -0.4380    -0.1250 c6         1 HBV      -0.044000
     12 C09          1.5650     0.3900    -0.6440 ca         1 HBV      -0.075000
     13 C12         -4.5620    -0.8340    -0.4450 c6         1 HBV      -0.061733
     14 C14         -5.0900     1.4940    -1.1740 c6         1 HBV      -0.067733
     15 C15         -3.6540     1.9120    -0.8550 c6         1 HBV      -0.058700
     16 C16         -3.5720     2.3860     0.5980 c6         1 HBV      -0.067733
     17 C17         -3.9870     1.2460     1.5310 c6         1 HBV      -0.058700
     18 C18         -3.0450     0.0570     1.3240 c6         1 HBV      -0.061733
     19 C19         -5.4220     0.8230     1.2120 c6         1 HBV      -0.067733
     20 C20         -2.7170     0.7180    -1.0510 c6         1 HBV      -0.061733
     21 F01          2.4860    -3.0450    -1.1930 f          1 HBV      -0.176000
     22 N01         -0.8080    -1.4180    -0.0360 n3         1 HBV      -0.740600
     23 N02          5.3510     1.8080     0.5920 ns         1 HBV      -0.374400
     24 O01          6.5580     2.2840     1.0070 oh         1 HBV      -0.431100
     25 O02          6.3150     0.1430    -0.5990 o          1 HBV      -0.556100
     26 H1          -2.5950    -2.4820     0.2740 h1         1 HBV       0.033700
     27 H2          -2.3300    -1.9900    -1.3790 h1         1 HBV       0.033700
     28 H3          -6.5310     0.0470    -0.4720 hc         1 HBV       0.047367
     29 H4          -0.2900    -3.2840     0.8720 h1         1 HBV       0.032367
     30 H5           0.6720    -1.8850     1.3750 h1         1 HBV       0.032367
     31 H6          -0.9790    -2.0560     1.9430 h1         1 HBV       0.032367
     32 H7          -0.4000    -0.9570    -2.0120 h1         1 HBV       0.047200
     33 H8           0.1240    -2.5700    -1.5640 h1         1 HBV       0.047200
     34 H9           4.6950    -1.8490    -0.7160 ha         1 HBV       0.154000
     35 H10          2.8700     2.0130    -0.2020 ha         1 HBV       0.119000
     36 H11          0.6850     1.0190    -0.6320 ha         1 HBV       0.131000
     37 H12         -4.8710    -1.6730     0.1910 hc         1 HBV       0.040200
     38 H13         -4.6260    -1.1900    -1.4810 hc         1 HBV       0.040200
     39 H14         -5.1700     1.1730    -2.2180 hc         1 HBV       0.038367
     40 H15         -5.7680     2.3450    -1.0540 hc         1 HBV       0.038367
     41 H16         -3.3510     2.7240    -1.5240 hc         1 HBV       0.047367
     42 H17         -2.5500     2.7070     0.8290 hc         1 HBV       0.038367
     43 H18         -4.2210     3.2560     0.7500 hc         1 HBV       0.038367
     44 H19         -3.9240     1.5820     2.5710 hc         1 HBV       0.047367
     45 H20         -3.3080    -0.7540     2.0140 hc         1 HBV       0.040200
     46 H21         -2.0160     0.3500     1.5550 hc         1 HBV       0.040200
     47 H22         -6.1110     1.6580     1.3800 hc         1 HBV       0.038367
     48 H23         -5.7340     0.0160     1.8830 hc         1 HBV       0.038367
     49 H24         -1.6850     1.0160    -0.8380 hc         1 HBV       0.040200
     50 H25         -2.7460     0.3840    -2.0950 hc         1 HBV       0.040200
     51 H27          4.5820     2.0640     1.1960 hn         1 HBV       0.333500
     52 H28          6.7690     3.0210     0.4210 ho         1 HBV       0.450000
@<TRIPOS>BOND
     1     1    11 1   
     2     1    22 1   
     3     1    26 1   
     4     1    27 1   
     5     2    13 1   
     6     2    14 1   
     7     2    19 1   
     8     2    28 1   
     9     3    22 1   
    10     3    29 1   
    11     3    30 1   
    12     3    31 1   
    13     4     5 1   
    14     4    22 1   
    15     4    32 1   
    16     4    33 1   
    17     5     6 ar  
    18     5    12 ar  
    19     6     7 ar  
    20     6    21 1   
    21     7     8 ar  
    22     7    34 1   
    23     8     9 1   
    24     8    10 ar  
    25     9    23 1   
    26     9    25 2   
    27    10    12 ar  
    28    10    35 1   
    29    11    13 1   
    30    11    18 1   
    31    11    20 1   
    32    12    36 1   
    33    13    37 1   
    34    13    38 1   
    35    14    15 1   
    36    14    39 1   
    37    14    40 1   
    38    15    16 1   
    39    15    20 1   
    40    15    41 1   
    41    16    17 1   
    42    16    42 1   
    43    16    43 1   
    44    17    18 1   
    45    17    19 1   
    46    17    44 1   
    47    18    45 1   
    48    18    46 1   
    49    19    47 1   
    50    19    48 1   
    51    20    49 1   
    52    20    50 1   
    53    23    24 1   
    54    23    51 1   
    55    24    52 1   
@<TRIPOS>SUBSTRUCTURE
     1 HBV         1 TEMP              0 ****  ****    0 ROOT
