@<TRIPOS>MOLECULE
HBW
   63    67     1     0     0
SMALL
abcg2


@<TRIPOS>ATOM
      1 C1          -1.4810    -2.9870     0.2620 ca         1 HBW      -0.112300
      2 C2          -2.2270    -1.8220     0.4500 ca         1 HBW       0.242000
      3 C3          -3.3990    -1.5840    -0.2600 ca         1 HBW      -0.276500
      4 C4          -3.8550    -2.5400    -1.1570 ca         1 HBW       0.011000
      5 C5          -3.1510    -3.7120    -1.3470 ca         1 HBW      -0.131000
      6 C6          -1.9710    -3.9180    -0.6520 ca         1 HBW       0.192000
      7 O10          0.7160    -2.2470     0.3190 os         1 HBW      -0.303100
      8 F22          3.0170     1.0170    -3.7320 f          1 HBW      -0.103333
      9 F24          1.8200     2.4510    -2.6660 f          1 HBW      -0.103333
     10 F23          1.0220     0.4980    -3.1050 f          1 HBW      -0.103333
     11 C18          2.6860     0.6470    -1.4390 ca         1 HBW       0.243300
     12 N17          2.0470    -0.3150    -0.8460 nb         1 HBW      -0.579000
     13 C19          3.8510     1.2510    -0.9360 ca         1 HBW      -0.122000
     14 C20          4.3560     0.7810     0.2430 ca         1 HBW       0.035800
     15 N25          5.5150     1.3690     0.7800 na         1 HBW      -0.094300
     16 C26          6.7030     1.5720     0.1190 cc         1 HBW      -0.216000
     17 C27          7.4950     2.2410     1.0010 cd         1 HBW       0.237900
     18 N28          6.8210     2.4670     2.1720 nd         1 HBW      -0.664000
     19 C29          5.6440     1.9360     2.0110 cc         1 HBW       0.406400
     20 C15          3.7250    -0.3000     0.9100 ca         1 HBW      -0.027000
     21 C16          2.5390    -0.7960     0.3100 ca         1 HBW       0.241000
     22 C14          4.2180    -0.9000     2.0880 ca         1 HBW      -0.145000
     23 C13          3.5290    -1.9390     2.6500 ca         1 HBW      -0.039000
     24 C12          2.3330    -2.4260     2.0910 ca         1 HBW      -0.215000
     25 C11          1.8340    -1.8680     0.9410 ca         1 HBW       0.193100
     26 C9          -0.1680    -3.1470     0.9690 c3         1 HBW       0.205900
     27 CL7         -1.6500    -0.6660     1.5880 cl         1 HBW      -0.167000
     28 CL8         -1.1050    -5.3780    -0.9640 cl         1 HBW      -0.177000
     29 S30         -4.3580    -0.0860    -0.0700 sy         1 HBW       1.218600
     30 O31         -5.3890    -0.1640    -1.0910 o          1 HBW      -0.530000
     31 O32         -4.7500     0.0610     1.3220 o          1 HBW      -0.530000
     32 N33         -3.2860     1.0820    -0.3930 n3         1 HBW      -0.794500
     33 C37         -2.6110     1.1970    -1.6810 c5         1 HBW       0.231800
     34 C36         -1.4690     2.1350    -1.3250 c5         1 HBW      -0.083400
     35 C35         -2.1230     3.1070    -0.3480 c5         1 HBW      -0.079400
     36 C34         -3.0880     2.2310     0.4750 c5         1 HBW       0.168500
     37 C38         -4.3830     2.9810     0.7540 c          1 HBW       0.582100
     38 O39         -5.3230     2.9560    -0.0250 o          1 HBW      -0.590100
     39 N40         -4.3690     3.7050     1.8760 ns         1 HBW      -0.495900
     40 C41         -5.4660     4.5620     2.2610 c3         1 HBW       0.095300
     41 H1          -4.7630    -2.3750    -1.7180 ha         1 HBW       0.157000
     42 H2          -3.5130    -4.4520    -2.0470 ha         1 HBW       0.142000
     43 H3           4.3270     2.0760    -1.4510 ha         1 HBW       0.153000
     44 H4           6.8740     1.2080    -0.8800 h4         1 HBW       0.164000
     45 H5           8.5120     2.5680     0.8560 h4         1 HBW       0.044100
     46 H6           4.8340     1.9460     2.7250 h5         1 HBW       0.062100
     47 H7           5.1410    -0.5650     2.5390 ha         1 HBW       0.137000
     48 H8           3.9100    -2.4110     3.5450 ha         1 HBW       0.124000
     49 H9           1.8320    -3.2520     2.5780 ha         1 HBW       0.129000
     50 H10         -0.2790    -2.8990     2.0280 h1         1 HBW       0.062200
     51 H11          0.2050    -4.1700     0.9090 h1         1 HBW       0.062200
     52 H12         -2.2640     0.2240    -2.0330 h1         1 HBW       0.060700
     53 H13         -3.2660     1.6290    -2.4420 h1         1 HBW       0.060700
     54 H14         -0.6710     1.5750    -0.8340 hc         1 HBW       0.060200
     55 H15         -1.0560     2.6340    -2.2000 hc         1 HBW       0.060200
     56 H16         -1.4120     3.6210     0.2960 hc         1 HBW       0.058700
     57 H17         -2.6800     3.8650    -0.9030 hc         1 HBW       0.058700
     58 H18         -2.6160     1.9250     1.4120 h1         1 HBW       0.069700
     59 H19         -3.5700     3.6500     2.4860 hn         1 HBW       0.316500
     60 H20         -6.3950     4.0000     2.3610 h1         1 HBW       0.042700
     61 H21         -5.2310     5.0100     3.2220 h1         1 HBW       0.042700
     62 H22         -5.6250     5.3620     1.5380 h1         1 HBW       0.042700
     63 C21          2.1210     1.1470    -2.7440 c3         1 HBW       0.266700
@<TRIPOS>BOND
     1     1     2 ar  
     2     1     6 ar  
     3     1    26 1   
     4     2     3 ar  
     5     2    27 1   
     6     3     4 ar  
     7     3    29 1   
     8     4     5 ar  
     9     4    41 1   
    10     5     6 ar  
    11     5    42 1   
    12     6    28 1   
    13     7    25 1   
    14     7    26 1   
    15     8    63 1   
    16     9    63 1   
    17    10    63 1   
    18    11    12 ar  
    19    11    13 ar  
    20    11    63 1   
    21    12    21 ar  
    22    13    14 ar  
    23    13    43 1   
    24    14    15 1   
    25    14    20 ar  
    26    15    16 1   
    27    15    19 1   
    28    16    17 2   
    29    16    44 1   
    30    17    18 1   
    31    17    45 1   
    32    18    19 2   
    33    19    46 1   
    34    20    21 ar  
    35    20    22 ar  
    36    21    25 ar  
    37    22    23 ar  
    38    22    47 1   
    39    23    24 ar  
    40    23    48 1   
    41    24    25 ar  
    42    24    49 1   
    43    26    50 1   
    44    26    51 1   
    45    29    30 2   
    46    29    31 2   
    47    29    32 1   
    48    32    33 1   
    49    32    36 1   
    50    33    34 1   
    51    33    52 1   
    52    33    53 1   
    53    34    35 1   
    54    34    54 1   
    55    34    55 1   
    56    35    36 1   
    57    35    56 1   
    58    35    57 1   
    59    36    37 1   
    60    36    58 1   
    61    37    38 2   
    62    37    39 1   
    63    39    40 1   
    64    39    59 1   
    65    40    60 1   
    66    40    61 1   
    67    40    62 1   
@<TRIPOS>SUBSTRUCTURE
     1 HBW         1 TEMP              0 ****  ****    0 ROOT
