@<TRIPOS>MOLECULE
HBW
   63    67     1     0     0
SMALL
No Charge or Current Charge


@<TRIPOS>ATOM
      1 C1          -1.4100    -2.7560     0.6170 ca         1 HBW      -0.112300
      2 C2          -2.1600    -1.6060     0.9710 ca         1 HBW       0.242000
      3 C3          -3.4190    -1.3700     0.3700 ca         1 HBW      -0.276500
      4 C4          -3.9310    -2.2870    -0.5700 ca         1 HBW       0.011000
      5 C5          -3.1920    -3.4260    -0.9110 ca         1 HBW      -0.131000
      6 C6          -1.9380    -3.6600    -0.3310 ca         1 HBW       0.192000
      7 O10          0.8750    -2.0700     0.5460 os         1 HBW      -0.303100
      8 F22          3.0700     2.3200    -3.1290 f          1 HBW      -0.103333
      9 F24          1.8520     3.0940    -1.5040 f          1 HBW      -0.103333
     10 F23          1.1810     1.3690    -2.6440 f          1 HBW      -0.103333
     11 C18          3.0120     1.0390    -1.0970 ca         1 HBW       0.243300
     12 N17          2.3220     0.0100    -0.5490 nb         1 HBW      -0.579000
     13 C19          4.3490     1.2940    -0.7500 ca         1 HBW      -0.122000
     14 C20          5.0000     0.4660     0.1790 ca         1 HBW       0.035800
     15 N25          6.3210     0.7550     0.5250 na         1 HBW      -0.094300
     16 C26          7.3480     0.8820    -0.3740 cc         1 HBW      -0.216000
     17 C27          8.3960     1.3340     0.3930 cd         1 HBW       0.237900
     18 N28          8.0060     1.5210     1.7130 nd         1 HBW      -0.664000
     19 C29          6.7220     1.1830     1.7670 cc         1 HBW       0.406400
     20 C15          4.2800    -0.6200     0.7380 ca         1 HBW      -0.027000
     21 C16          2.9250    -0.8160     0.3480 ca         1 HBW       0.241000
     22 C14          4.8830    -1.5110     1.6580 ca         1 HBW      -0.145000
     23 C13          4.1520    -2.5710     2.2100 ca         1 HBW      -0.039000
     24 C12          2.8130    -2.7640     1.8500 ca         1 HBW      -0.215000
     25 C11          2.1970    -1.8960     0.9210 ca         1 HBW       0.193100
     26 C9          -0.0200    -2.9720     1.2150 c3         1 HBW       0.205900
     27 Cl7         -1.4720    -0.4680     2.1470 cl         1 HBW      -0.167000
     28 Cl8         -1.0510    -5.0960    -0.8470 cl         1 HBW      -0.177000
     29 S30         -4.3770     0.1090     0.7320 sy         1 HBW       1.218600
     30 O31         -5.5620     0.1670    -0.1290 o          1 HBW      -0.530000
     31 O32         -4.4770     0.2460     2.1890 o          1 HBW      -0.530000
     32 N33         -3.3310     1.3460     0.2230 n3         1 HBW      -0.794500
     33 C37         -2.7400     1.3140    -1.1230 c5         1 HBW       0.231800
     34 C36         -1.7020     2.4440    -0.9670 c5         1 HBW      -0.083400
     35 C35         -2.5220     3.5570    -0.2490 c5         1 HBW      -0.079400
     36 C34         -3.6730     2.7790     0.4780 c5         1 HBW       0.168500
     37 C38         -5.0780     3.2650    -0.0690 c          1 HBW       0.582100
     38 O39         -5.4160     3.4220    -1.2380 o          1 HBW      -0.590100
     39 N40         -5.9240     3.5410     0.9890 ns         1 HBW      -0.495900
     40 C41         -7.3010     4.0150     0.8360 c3         1 HBW       0.095300
     41 H1          -4.8960    -2.1230    -1.0480 ha         1 HBW       0.157000
     42 H2          -3.5870    -4.1280    -1.6420 ha         1 HBW       0.142000
     43 H3           4.8710     2.1400    -1.1900 ha         1 HBW       0.153000
     44 H4           7.2730     0.6490    -1.4280 h4         1 HBW       0.164000
     45 H5           9.4060     1.5500     0.0650 h4         1 HBW       0.044100
     46 H6           6.0630     1.2220     2.6270 h5         1 HBW       0.062100
     47 H7           5.9240    -1.4000     1.9510 ha         1 HBW       0.137000
     48 H8           4.6280    -3.2480     2.9170 ha         1 HBW       0.124000
     49 H9           2.2730    -3.5960     2.2920 ha         1 HBW       0.129000
     50 H10         -0.0440    -2.7680     2.2940 h1         1 HBW       0.062200
     51 H11          0.3130    -4.0090     1.0960 h1         1 HBW       0.062200
     52 H12         -2.2560     0.3560    -1.3600 h1         1 HBW       0.060700
     53 H13         -3.4790     1.5320    -1.9070 h1         1 HBW       0.060700
     54 H14         -0.8600     2.1110    -0.3490 hc         1 HBW       0.060200
     55 H15         -1.2930     2.7730    -1.9290 hc         1 HBW       0.060200
     56 H16         -1.9000     4.1130     0.4610 hc         1 HBW       0.058700
     57 H17         -2.9060     4.2900    -0.9670 hc         1 HBW       0.058700
     58 H18         -3.6390     2.9880     1.5560 h1         1 HBW       0.069700
     59 H19         -5.5690     3.3790     1.9260 hn         1 HBW       0.316500
     60 H20         -7.8840     3.2780     0.2690 h1         1 HBW       0.042700
     61 H21         -7.7550     4.1520     1.8260 h1         1 HBW       0.042700
     62 H22         -7.3040     4.9740     0.3010 h1         1 HBW       0.042700
     63 C21          2.2750     1.9530    -2.0960 c3         1 HBW       0.266700
@<TRIPOS>BOND
     1     1     2 ar  
     2     1     6 ar  
     3     1    26 1   
     4     2     3 ar  
     5     2    27 1   
     6     3     4 ar  
     7     3    29 1   
     8     4     5 ar  
     9     4    41 1   
    10     5     6 ar  
    11     5    42 1   
    12     6    28 1   
    13     7    25 1   
    14     7    26 1   
    15     8    63 1   
    16     9    63 1   
    17    10    63 1   
    18    11    12 ar  
    19    11    13 ar  
    20    11    63 1   
    21    12    21 ar  
    22    13    14 ar  
    23    13    43 1   
    24    14    15 1   
    25    14    20 ar  
    26    15    16 1   
    27    15    19 1   
    28    16    17 2   
    29    16    44 1   
    30    17    18 1   
    31    17    45 1   
    32    18    19 2   
    33    19    46 1   
    34    20    21 ar  
    35    20    22 ar  
    36    21    25 ar  
    37    22    23 ar  
    38    22    47 1   
    39    23    24 ar  
    40    23    48 1   
    41    24    25 ar  
    42    24    49 1   
    43    26    50 1   
    44    26    51 1   
    45    29    30 2   
    46    29    31 2   
    47    29    32 1   
    48    32    33 1   
    49    32    36 1   
    50    33    34 1   
    51    33    52 1   
    52    33    53 1   
    53    34    35 1   
    54    34    54 1   
    55    34    55 1   
    56    35    36 1   
    57    35    56 1   
    58    35    57 1   
    59    36    37 1   
    60    36    58 1   
    61    37    38 2   
    62    37    39 1   
    63    39    40 1   
    64    39    59 1   
    65    40    60 1   
    66    40    61 1   
    67    40    62 1   
@<TRIPOS>SUBSTRUCTURE
     1 HBW         1 TEMP              0 ****  ****    0 ROOT
