@<TRIPOS>MOLECULE
HBX
   14    14     1     0     0
SMALL
bcc


@<TRIPOS>ATOM
      1 C1           1.9340     0.5130     0.0150 c          1 HBX       0.583500
      2 O1           2.8100    -0.3200     0.0410 o          1 HBX      -0.517100
      3 C7           0.4940     0.2130     0.0000 ca         1 HBX      -0.201600
      4 C2          -0.4100     1.2720    -0.0360 ca         1 HBX      -0.077500
      5 C3          -1.7740     1.0220    -0.0520 ca         1 HBX      -0.143000
      6 C4          -2.2330    -0.2880    -0.0310 ca         1 HBX      -0.098000
      7 C5          -1.3330    -1.3490     0.0060 ca         1 HBX      -0.143000
      8 C6           0.0280    -1.1020     0.0210 ca         1 HBX      -0.077500
      9 H1           2.1770     1.5910    -0.0010 h4         1 HBX      -0.012800
     10 H2          -0.0440     2.2920    -0.0530 ha         1 HBX       0.141000
     11 H3          -2.4770     1.8440    -0.0800 ha         1 HBX       0.135500
     12 H4          -3.2980    -0.4840    -0.0420 ha         1 HBX       0.133000
     13 H5          -1.6980    -2.3680     0.0230 ha         1 HBX       0.135500
     14 H6           0.7310    -1.9250     0.0490 ha         1 HBX       0.141000
@<TRIPOS>BOND
     1     1     2 2   
     2     1     3 1   
     3     1     9 1   
     4     3     4 ar  
     5     3     8 ar  
     6     4     5 ar  
     7     4    10 1   
     8     5     6 ar  
     9     5    11 1   
    10     6     7 ar  
    11     6    12 1   
    12     7     8 ar  
    13     7    13 1   
    14     8    14 1   
@<TRIPOS>SUBSTRUCTURE
     1 HBX         1 TEMP              0 ****  ****    0 ROOT
