@<TRIPOS>MOLECULE
HBX
   14    14     1     0     0
SMALL
No Charge or Current Charge


@<TRIPOS>ATOM
      1 C1           1.9840     0.5240     0.0150 c          1 HBX       0.583500
      2 O1           2.8480    -0.3470     0.0460 o          1 HBX      -0.517100
      3 C7           0.5070     0.2280    -0.0010 ca         1 HBX      -0.201600
      4 C2          -0.4190     1.2910    -0.0370 ca         1 HBX      -0.059500
      5 C3          -1.8000     1.0270    -0.0520 ca         1 HBX      -0.125000
      6 C4          -2.2660    -0.2980    -0.0310 ca         1 HBX      -0.080000
      7 C5          -1.3490    -1.3610     0.0060 ca         1 HBX      -0.125000
      8 C6           0.0330    -1.1030     0.0210 ca         1 HBX      -0.059500
      9 H1           2.2630     1.6010    -0.0040 h4         1 HBX      -0.012800
     10 H2          -0.0720     2.3230    -0.0540 ha         1 HBX       0.123000
     11 H3          -2.5100     1.8510    -0.0800 ha         1 HBX       0.117500
     12 H4          -3.3350    -0.5000    -0.0420 ha         1 HBX       0.115000
     13 H5          -1.7090    -2.3880     0.0220 ha         1 HBX       0.117500
     14 H6           0.7310    -1.9370     0.0490 ha         1 HBX       0.123000
@<TRIPOS>BOND
     1     1     2 2   
     2     1     3 1   
     3     1     9 1   
     4     3     4 ar  
     5     3     8 ar  
     6     4     5 ar  
     7     4    10 1   
     8     5     6 ar  
     9     5    11 1   
    10     6     7 ar  
    11     6    12 1   
    12     7     8 ar  
    13     7    13 1   
    14     8    14 1   
@<TRIPOS>SUBSTRUCTURE
     1 HBX         1 TEMP              0 ****  ****    0 ROOT
