@<TRIPOS>MOLECULE
HBY
   42    43     1     0     0
SMALL
abcg2


@<TRIPOS>ATOM
      1 C1          -0.2710    -0.1810    -1.8540 c6         1 HBY       0.083700
      2 C2           0.8850    -1.0850    -2.2330 cs         1 HBY       0.346400
      3 C3           1.7740    -0.5350    -0.0610 ca         1 HBY      -0.047400
      4 C4           0.5380    -0.0850     0.4080 ca         1 HBY       0.001000
      5 C5           0.4640     0.6110     1.5990 ca         1 HBY      -0.117000
      6 C6           1.6120     0.8050     2.3670 ca         1 HBY       0.149100
      7 C7           2.8410     0.3280     1.9130 ca         1 HBY      -0.189000
      8 C8           2.9150    -0.3270     0.6930 ca         1 HBY      -0.081000
      9 C10         -2.9740    -1.6360     1.8610 c3         1 HBY       0.198300
     10 C12         -2.5440    -2.3630     3.1180 c3         1 HBY      -0.109600
     11 C11         -3.9020    -0.4720     2.1500 c3         1 HBY      -0.109600
     12 C13          0.0680     1.2620    -2.2260 c3         1 HBY       0.040600
     13 C14         -0.6950     3.8970    -2.4040 c3         1 HBY       0.032900
     14 C15          2.5700     1.7280     4.3310 c3         1 HBY       0.146900
     15 N1          -0.5590    -0.3250    -0.4380 n          1 HBY      -0.226400
     16 N2           1.8240    -1.1860    -1.2980 ns         1 HBY      -0.282100
     17 O1          -2.6670    -1.0920    -0.8070 o          1 HBY      -0.512000
     18 O2          -1.7560    -1.1550     1.2460 os         1 HBY      -0.453100
     19 O3           1.4380     1.4730     3.5220 os         1 HBY      -0.335100
     20 S1           0.9720    -1.8180    -3.7100 s          1 HBY      -0.519400
     21 S2          -1.2720     2.3500    -1.6720 ss         1 HBY      -0.398000
     22 H1          -1.1490    -0.4960    -2.4120 h1         1 HBY       0.141700
     23 H5          -0.4810     1.0020     1.9510 ha         1 HBY       0.152000
     24 H7           3.7490     0.4660     2.4810 ha         1 HBY       0.125000
     25 H8           3.8740    -0.6760     0.3320 ha         1 HBY       0.121000
     26 H10         -3.4590    -2.3390     1.1810 h1         1 HBY       0.067700
     27 H121        -3.4210    -2.7710     3.6190 hc         1 HBY       0.050200
     28 H122        -1.8750    -3.1920     2.8880 hc         1 HBY       0.050200
     29 H123        -2.0400    -1.6910     3.8140 hc         1 HBY       0.050200
     30 H111        -3.4210     0.2610     2.8000 hc         1 HBY       0.050200
     31 H112        -4.2240     0.0300     1.2380 hc         1 HBY       0.050200
     32 H113        -4.7950    -0.8350     2.6580 hc         1 HBY       0.050200
     33 H131         1.0100     1.5830    -1.7740 h1         1 HBY       0.075200
     34 H132         0.1750     1.3260    -3.3100 h1         1 HBY       0.075200
     35 H141        -1.4140     4.6700    -2.1380 h1         1 HBY       0.061367
     36 H142         0.2800     4.1770    -2.0090 h1         1 HBY       0.061367
     37 H143        -0.6430     3.8260    -3.4900 h1         1 HBY       0.061367
     38 H151         2.2100     2.2700     5.2020 h1         1 HBY       0.043367
     39 H152         3.0490     0.8040     4.6650 h1         1 HBY       0.043367
     40 H153         3.3110     2.3440     3.8160 h1         1 HBY       0.043367
     41 HN2          2.6470    -1.7330    -1.5160 hn         1 HBY       0.344500
     42 C9          -1.7520    -0.8810    -0.0440 c          1 HBY       0.664100
@<TRIPOS>BOND
     1     1     2 1   
     2     1    12 1   
     3     1    15 1   
     4     1    22 1   
     5     2    16 1   
     6     2    20 2   
     7     3     4 ar  
     8     3     8 ar  
     9     3    16 1   
    10     4     5 ar  
    11     4    15 1   
    12     5     6 ar  
    13     5    23 1   
    14     6     7 ar  
    15     6    19 1   
    16     7     8 ar  
    17     7    24 1   
    18     8    25 1   
    19     9    10 1   
    20     9    11 1   
    21     9    18 1   
    22     9    26 1   
    23    10    27 1   
    24    10    28 1   
    25    10    29 1   
    26    11    30 1   
    27    11    31 1   
    28    11    32 1   
    29    12    21 1   
    30    12    33 1   
    31    12    34 1   
    32    13    21 1   
    33    13    35 1   
    34    13    36 1   
    35    13    37 1   
    36    14    19 1   
    37    14    38 1   
    38    14    39 1   
    39    14    40 1   
    40    15    42 1   
    41    16    41 1   
    42    17    42 2   
    43    18    42 1   
@<TRIPOS>SUBSTRUCTURE
     1 HBY         1 TEMP              0 ****  ****    0 ROOT
