@<TRIPOS>MOLECULE
HBY
   42    43     1     0     0
SMALL
No Charge or Current Charge


@<TRIPOS>ATOM
      1 C1          -0.1570    -0.1790    -1.9550 c6         1 HBY       0.083700
      2 C2           1.1920    -0.8670    -2.3580 cs         1 HBY       0.346400
      3 C3           1.9930    -0.4860    -0.0360 ca         1 HBY      -0.047400
      4 C4           0.7450     0.0230     0.3780 ca         1 HBY       0.001000
      5 C5           0.6290     0.5160     1.6960 ca         1 HBY      -0.117000
      6 C6           1.7410     0.5680     2.5530 ca         1 HBY       0.149100
      7 C7           2.9890     0.0840     2.1080 ca         1 HBY      -0.189000
      8 C8           3.1110    -0.4470     0.8140 ca         1 HBY      -0.081000
      9 C10         -2.9200    -1.4200     1.9260 c3         1 HBY       0.198300
     10 C12         -2.5260    -2.0760     3.2620 c3         1 HBY      -0.109600
     11 C11         -3.8360    -0.1920     2.1250 c3         1 HBY      -0.109600
     12 C13         -0.2030     1.2750    -2.5030 c3         1 HBY       0.040600
     13 C14         -1.4260     3.7990    -2.9140 c3         1 HBY       0.032900
     14 C15          2.6260     1.1820     4.7750 c3         1 HBY       0.146900
     15 N1          -0.4040    -0.2380    -0.4750 n          1 HBY      -0.226400
     16 N2           2.1030    -0.9830    -1.3470 ns         1 HBY      -0.282100
     17 O1          -2.6230    -0.8890    -0.7720 o          1 HBY      -0.512000
     18 O2          -1.6950    -0.9830     1.3130 os         1 HBY      -0.453100
     19 O3           1.5560     1.0910     3.8170 os         1 HBY      -0.335100
     20 S1           1.4830    -1.4760    -3.8910 s          1 HBY      -0.519400
     21 S2          -1.8130     2.1400    -2.1960 ss         1 HBY      -0.398000
     22 H1          -0.9290    -0.7530    -2.4860 h1         1 HBY       0.141700
     23 H5          -0.3220     0.8900     2.0640 ha         1 HBY       0.152000
     24 H7           3.8670     0.1070     2.7470 ha         1 HBY       0.125000
     25 H8           4.0740    -0.8230     0.4730 ha         1 HBY       0.121000
     26 H10         -3.4310    -2.1710     1.3070 h1         1 HBY       0.067700
     27 H121        -3.4170    -2.4320     3.7930 hc         1 HBY       0.050200
     28 H122        -1.8680    -2.9360     3.0860 hc         1 HBY       0.050200
     29 H123        -2.0000    -1.3630     3.9080 hc         1 HBY       0.050200
     30 H111        -3.3210     0.5890     2.6970 hc         1 HBY       0.050200
     31 H112        -4.1470     0.2310     1.1640 hc         1 HBY       0.050200
     32 H113        -4.7410    -0.4770     2.6730 hc         1 HBY       0.050200
     33 H131         0.6040     1.8530    -2.0330 h1         1 HBY       0.075200
     34 H132        -0.0170     1.2540    -3.5850 h1         1 HBY       0.075200
     35 H141        -2.2980     4.4580    -2.8140 h1         1 HBY       0.061367
     36 H142        -0.5760     4.2470    -2.3830 h1         1 HBY       0.061367
     37 H143        -1.1740     3.6970    -3.9770 h1         1 HBY       0.061367
     38 H151         2.2620     1.6250     5.7100 h1         1 HBY       0.043367
     39 H152         3.0290     0.1870     5.0050 h1         1 HBY       0.043367
     40 H153         3.4380     1.8130     4.3930 h1         1 HBY       0.043367
     41 HN2          2.9770    -1.4410    -1.5850 hn         1 HBY       0.344500
     42 C9          -1.6840    -0.6590    -0.0200 c          1 HBY       0.664100
@<TRIPOS>BOND
     1     1     2 1   
     2     1    12 1   
     3     1    15 1   
     4     1    22 1   
     5     2    16 1   
     6     2    20 2   
     7     3     4 ar  
     8     3     8 ar  
     9     3    16 1   
    10     4     5 ar  
    11     4    15 1   
    12     5     6 ar  
    13     5    23 1   
    14     6     7 ar  
    15     6    19 1   
    16     7     8 ar  
    17     7    24 1   
    18     8    25 1   
    19     9    10 1   
    20     9    11 1   
    21     9    18 1   
    22     9    26 1   
    23    10    27 1   
    24    10    28 1   
    25    10    29 1   
    26    11    30 1   
    27    11    31 1   
    28    11    32 1   
    29    12    21 1   
    30    12    33 1   
    31    12    34 1   
    32    13    21 1   
    33    13    35 1   
    34    13    36 1   
    35    13    37 1   
    36    14    19 1   
    37    14    38 1   
    38    14    39 1   
    39    14    40 1   
    40    15    42 1   
    41    16    41 1   
    42    17    42 2   
    43    18    42 1   
@<TRIPOS>SUBSTRUCTURE
     1 HBY         1 TEMP              0 ****  ****    0 ROOT
