@<TRIPOS>MOLECULE
HBZ
   42    43     1     0     0
SMALL
bcc


@<TRIPOS>ATOM
      1 O5           2.6200     0.8710    -0.3420 os         1 HBZ      -0.414600
      2 C1           2.0280    -0.2620     0.2490 c6         1 HBZ       0.288500
      3 C2           2.6770    -1.5370    -0.2950 c6         1 HBZ       0.075100
      4 O2           2.1820    -2.6810     0.3520 oh         1 HBZ      -0.591800
      5 C3           4.1770    -1.4790    -0.0460 c6         1 HBZ       0.116100
      6 O3           4.8550    -2.5480    -0.6610 oh         1 HBZ      -0.603800
      7 C4           4.7650    -0.1860    -0.6000 c6         1 HBZ       0.119100
      8 O4           6.1160    -0.0450    -0.2400 oh         1 HBZ      -0.591800
      9 C5           3.9930     1.0100    -0.0410 c6         1 HBZ       0.156100
     10 C6           4.4680     2.3180    -0.6360 c3         1 HBZ       0.149400
     11 O6           3.7840     3.3760    -0.0080 oh         1 HBZ      -0.582800
     12 N1           0.6340    -0.2580    -0.0430 ns         1 HBZ      -0.590900
     13 C7          -0.2880     0.2900     0.7950 c          1 HBZ       0.803100
     14 O7          -0.0220     0.7720     1.8730 o          1 HBZ      -0.549100
     15 N2          -1.5790     0.1900     0.2840 ns         1 HBZ      -0.628500
     16 C8          -2.7180     0.7350     0.8400 c          1 HBZ       0.705700
     17 O8          -2.6940     1.5390     1.7460 o          1 HBZ      -0.521100
     18 C9          -3.9930     0.2810     0.2290 ca         1 HBZ      -0.204600
     19 C10         -5.1310     1.0600     0.4340 ca         1 HBZ      -0.044500
     20 C11         -6.3570     0.6870    -0.0820 ca         1 HBZ      -0.207500
     21 C12         -6.4750    -0.4990    -0.8080 ca         1 HBZ       0.170100
     22 C13         -5.3480    -1.2960    -1.0100 ca         1 HBZ      -0.207500
     23 C14         -4.1260    -0.9050    -0.4980 ca         1 HBZ      -0.044500
     24 O12         -7.6370    -0.9190    -1.3240 oh         1 HBZ      -0.487100
     25 H1           2.1550    -0.2340     1.3380 h2         1 HBZ       0.091700
     26 H2           2.5030    -1.5820    -1.3820 h1         1 HBZ       0.048700
     27 HO2          1.2770    -2.8370     0.0640 ho         1 HBZ       0.415000
     28 H3           4.3420    -1.4870     1.0430 h1         1 HBZ       0.059700
     29 HO3          4.6450    -3.3590    -0.1870 ho         1 HBZ       0.427000
     30 H4           4.6450    -0.1910    -1.6950 h1         1 HBZ       0.051700
     31 HO4          6.5990    -0.8030    -0.5860 ho         1 HBZ       0.426000
     32 H5           4.1380     1.0420     1.0520 h1         1 HBZ       0.068700
     33 H6           5.5510     2.3910    -0.4890 h1         1 HBZ       0.034700
     34 H6A          4.2900     2.3020    -1.7200 h1         1 HBZ       0.034700
     35 HO6          4.1400     4.2020    -0.3470 ho         1 HBZ       0.404000
     36 HN1          0.3620    -0.5070    -0.9820 hn         1 HBZ       0.305500
     37 HN2         -1.6910    -0.3260    -0.5740 hn         1 HBZ       0.311500
     38 H10         -5.0600     1.9800     1.0000 ha         1 HBZ       0.141500
     39 H11         -7.2240     1.3150     0.0830 ha         1 HBZ       0.145000
     40 H13         -5.4360    -2.2230    -1.5610 ha         1 HBZ       0.145000
     41 H14         -3.2840    -1.5670    -0.6560 ha         1 HBZ       0.141500
     42 HO12        -8.3480    -0.3020    -1.1150 ho         1 HBZ       0.433000
@<TRIPOS>BOND
     1     1     2 1   
     2     1     9 1   
     3     2     3 1   
     4     2    12 1   
     5     2    25 1   
     6     3     4 1   
     7     3     5 1   
     8     3    26 1   
     9     4    27 1   
    10     5     6 1   
    11     5     7 1   
    12     5    28 1   
    13     6    29 1   
    14     7     8 1   
    15     7     9 1   
    16     7    30 1   
    17     8    31 1   
    18     9    10 1   
    19     9    32 1   
    20    10    11 1   
    21    10    33 1   
    22    10    34 1   
    23    11    35 1   
    24    12    13 1   
    25    12    36 1   
    26    13    14 2   
    27    13    15 1   
    28    15    16 1   
    29    15    37 1   
    30    16    17 2   
    31    16    18 1   
    32    18    19 ar  
    33    18    23 ar  
    34    19    20 ar  
    35    19    38 1   
    36    20    21 ar  
    37    20    39 1   
    38    21    22 ar  
    39    21    24 1   
    40    22    23 ar  
    41    22    40 1   
    42    23    41 1   
    43    24    42 1   
@<TRIPOS>SUBSTRUCTURE
     1 HBZ         1 TEMP              0 ****  ****    0 ROOT
