@<TRIPOS>MOLECULE
HBZ
   42    43     1     0     0
SMALL
No Charge or Current Charge


@<TRIPOS>ATOM
      1 O5           2.5080     0.7430    -0.2250 os         1 HBZ      -0.461000
      2 C1           2.0710    -0.4190     0.5040 c6         1 HBZ       0.311700
      3 C2           2.7820    -1.6900    -0.0750 c6         1 HBZ       0.098300
      4 O2           2.4080    -2.9020     0.6240 oh         1 HBZ      -0.714000
      5 C3           4.3210    -1.4890     0.0140 c6         1 HBZ       0.139300
      6 O3           5.0010    -2.6270    -0.5440 oh         1 HBZ      -0.666000
      7 C4           4.7430    -0.1800    -0.7130 c6         1 HBZ       0.142300
      8 O4           6.1660     0.0070    -0.5880 oh         1 HBZ      -0.714000
      9 C5           3.9330     1.0180    -0.1230 c6         1 HBZ       0.179300
     10 C6           4.2330     2.3620    -0.8650 c3         1 HBZ       0.172600
     11 O6           3.4620     3.4770    -0.3710 oh         1 HBZ      -0.705000
     12 N1           0.6260    -0.4840     0.3250 ns         1 HBZ      -0.523900
     13 C7          -0.2710     0.2500     1.0510 c          1 HBZ       0.669100
     14 O7           0.0520     0.9250     2.0130 o          1 HBZ      -0.549100
     15 N2          -1.5450     0.1190     0.5850 ns         1 HBZ      -0.494500
     16 C8          -2.7110     0.6810     1.0400 c          1 HBZ       0.638700
     17 O8          -2.7430     1.4300     2.0060 o          1 HBZ      -0.521100
     18 C9          -3.9720     0.3220     0.2780 ca         1 HBZ      -0.204600
     19 C10         -5.2080     0.8670     0.6980 ca         1 HBZ      -0.026500
     20 C11         -6.3990     0.5590     0.0180 ca         1 HBZ      -0.189500
     21 C12         -6.3730    -0.2970    -1.0910 ca         1 HBZ       0.170100
     22 C13         -5.1590    -0.8450    -1.5200 ca         1 HBZ      -0.189500
     23 C14         -3.9630    -0.5420    -0.8460 ca         1 HBZ      -0.026500
     24 O12         -7.5230    -0.6010    -1.7550 oh         1 HBZ      -0.526100
     25 H1           2.3090    -0.3080     1.5750 h2         1 HBZ       0.091700
     26 H2           2.5070    -1.7750    -1.1370 h1         1 HBZ       0.048700
     27 HO2          1.4220    -2.9390     0.6470 ho         1 HBZ       0.514000
     28 H3           4.5850    -1.3890     1.0790 h1         1 HBZ       0.059700
     29 HO3          4.4520    -3.3990    -0.2690 ho         1 HBZ       0.466000
     30 H4           4.4760    -0.2770    -1.7760 h1         1 HBZ       0.051700
     31 HO4          6.5500    -0.8980    -0.7020 ho         1 HBZ       0.525000
     32 H5           4.1940     1.1480     0.9380 h1         1 HBZ       0.068700
     33 H6           5.3050     2.5790    -0.7630 h1         1 HBZ       0.034700
     34 H6A          4.0340     2.2120    -1.9350 h1         1 HBZ       0.034700
     35 HO6          3.6740     4.2510    -0.9440 ho         1 HBZ       0.503000
     36 HN1          0.2760    -0.9770    -0.4840 hn         1 HBZ       0.305500
     37 HN2         -1.6490    -0.4780    -0.2150 hn         1 HBZ       0.311500
     38 H10         -5.2530     1.5350     1.5570 ha         1 HBZ       0.123500
     39 H11         -7.3360     0.9910     0.3600 ha         1 HBZ       0.127000
     40 H13         -5.1410    -1.5090    -2.3810 ha         1 HBZ       0.127000
     41 H14         -3.0440    -0.9910    -1.2150 ha         1 HBZ       0.123500
     42 HO12        -8.2650    -0.1310    -1.3180 ho         1 HBZ       0.472000
@<TRIPOS>BOND
     1     1     2 1   
     2     1     9 1   
     3     2     3 1   
     4     2    12 1   
     5     2    25 1   
     6     3     4 1   
     7     3     5 1   
     8     3    26 1   
     9     4    27 1   
    10     5     6 1   
    11     5     7 1   
    12     5    28 1   
    13     6    29 1   
    14     7     8 1   
    15     7     9 1   
    16     7    30 1   
    17     8    31 1   
    18     9    10 1   
    19     9    32 1   
    20    10    11 1   
    21    10    33 1   
    22    10    34 1   
    23    11    35 1   
    24    12    13 1   
    25    12    36 1   
    26    13    14 2   
    27    13    15 1   
    28    15    16 1   
    29    15    37 1   
    30    16    17 2   
    31    16    18 1   
    32    18    19 ar  
    33    18    23 ar  
    34    19    20 ar  
    35    19    38 1   
    36    20    21 ar  
    37    20    39 1   
    38    21    22 ar  
    39    21    24 1   
    40    22    23 ar  
    41    22    40 1   
    42    23    41 1   
    43    24    42 1   
@<TRIPOS>SUBSTRUCTURE
     1 HBZ         1 TEMP              0 ****  ****    0 ROOT
