@<TRIPOS>MOLECULE
HC2
   75    78     1     0     0
SMALL
No Charge or Current Charge


@<TRIPOS>ATOM
      1 C1           3.8230    -2.0060    -0.7500 c6         1 HC2      -0.067400
      2 C2           5.2800    -2.5260    -0.7100 c6         1 HC2      -0.072400
      3 C3           6.2690    -1.4090    -1.1010 c6         1 HC2       0.173300
      4 C4           6.1110    -0.2030    -0.1500 c6         1 HC2      -0.074200
      5 C5           4.6680     0.3110    -0.0890 c2         1 HC2      -0.107400
      6 C6           4.4130     1.6260    -0.2110 c2         1 HC2      -0.216200
      7 C7           3.0310     2.2490    -0.1470 c6         1 HC2      -0.037200
      8 C8           1.9390     1.2850     0.3890 c6         1 HC2      -0.043700
      9 C9           2.1410    -0.1470    -0.2090 c6         1 HC2      -0.046700
     10 C10          3.5650    -0.7480     0.1530 c6         1 HC2       0.003200
     11 C11          0.9420    -1.0930     0.1530 c6         1 HC2      -0.070400
     12 C12         -0.4480    -0.4820    -0.1820 c6         1 HC2      -0.065400
     13 C13         -0.6670     0.9100     0.5010 c5         1 HC2      -0.038000
     14 C14          0.5180     1.8200     0.0350 c5         1 HC2      -0.064700
     15 C15          0.1250     3.2070     0.5990 c5         1 HC2      -0.073400
     16 C16         -1.4150     3.2600     0.3560 c5         1 HC2      -0.073400
     17 C17         -1.8430     1.8040    -0.0890 c5         1 HC2      -0.082700
     18 C18         -0.7640     0.7030     2.0530 c3         1 HC2      -0.084100
     19 C19          3.6580    -1.1500     1.6680 c3         1 HC2      -0.079100
     20 C20         -3.3690     1.4630     0.1790 c3         1 HC2       0.199000
     21 C21         -4.2720     2.4470    -0.6190 c3         1 HC2      -0.083100
     22 C22         -3.7290    -0.0150    -0.1680 c3         1 HC2      -0.103400
     23 C23         -5.2320    -0.4040    -0.1380 c3         1 HC2      -0.073400
     24 C24         -5.4590    -1.9210    -0.3470 c3         1 HC2      -0.074400
     25 C25         -6.9380    -2.3830    -0.2280 c3         1 HC2      -0.059700
     26 C26         -7.8610    -1.7400    -1.2910 c3         1 HC2      -0.086600
     27 C27         -7.0390    -3.9240    -0.2780 c3         1 HC2      -0.086600
     28 O1           7.6110    -1.9050    -1.0540 oh         1 HC2      -0.660000
     29 O2          -3.6780     1.6630     1.5630 oh         1 HC2      -0.664000
     30 H11          3.5750    -1.7670    -1.7930 hc         1 HC2       0.042200
     31 H12          3.1540    -2.8280    -0.4620 hc         1 HC2       0.042200
     32 H21          5.3850    -3.3700    -1.4060 hc         1 HC2       0.053200
     33 H22          5.5220    -2.9180     0.2870 hc         1 HC2       0.053200
     34 H3           6.0320    -1.0780    -2.1240 h1         1 HC2       0.029700
     35 H41          6.7880     0.6020    -0.4670 hc         1 HC2       0.049700
     36 H42          6.4380    -0.4860     0.8590 hc         1 HC2       0.049700
     37 H6           5.2300     2.3320    -0.3660 ha         1 HC2       0.168000
     38 H71          2.7690     2.5970    -1.1560 hc         1 HC2       0.047200
     39 H72          3.0670     3.1470     0.4860 hc         1 HC2       0.047200
     40 H8           2.0340     1.2400     1.4810 hc         1 HC2       0.054700
     41 H9           2.1140    -0.0230    -1.3020 hc         1 HC2       0.045700
     42 H111         1.0330    -2.0400    -0.3930 hc         1 HC2       0.040700
     43 H112         0.9620    -1.3610     1.2160 hc         1 HC2       0.040700
     44 H121        -0.5400    -0.3830    -1.2730 hc         1 HC2       0.040200
     45 H122        -1.2110    -1.2050     0.1230 hc         1 HC2       0.040200
     46 H14          0.5280     1.8800    -1.0620 hc         1 HC2       0.042700
     47 H151         0.6460     4.0230     0.0860 hc         1 HC2       0.042200
     48 H152         0.3680     3.2980     1.6640 hc         1 HC2       0.042200
     49 H161        -1.6640     3.9940    -0.4180 hc         1 HC2       0.049200
     50 H162        -1.9270     3.5900     1.2670 hc         1 HC2       0.049200
     51 H17         -1.7670     1.7590    -1.1830 hc         1 HC2       0.046700
     52 H181         0.1750     0.3460     2.4880 hc         1 HC2       0.034033
     53 H182        -1.0220     1.6250     2.5860 hc         1 HC2       0.034033
     54 H183        -1.5300    -0.0390     2.3040 hc         1 HC2       0.034033
     55 H191         4.6610    -1.4900     1.9430 hc         1 HC2       0.034700
     56 H192         3.4220    -0.3100     2.3310 hc         1 HC2       0.034700
     57 H193         2.9810    -1.9730     1.9180 hc         1 HC2       0.034700
     58 H211        -5.3300     2.3280    -0.3580 hc         1 HC2       0.041700
     59 H212        -4.0150     3.4900    -0.4070 hc         1 HC2       0.041700
     60 H213        -4.1640     2.2840    -1.6980 hc         1 HC2       0.041700
     61 H221        -3.2270    -0.6680     0.5510 hc         1 HC2       0.041200
     62 H222        -3.3230    -0.2550    -1.1590 hc         1 HC2       0.041200
     63 H231        -5.7610     0.1440    -0.9250 hc         1 HC2       0.045700
     64 H232        -5.6710    -0.1050     0.8220 hc         1 HC2       0.045700
     65 H241        -4.8640    -2.4650     0.3960 hc         1 HC2       0.034700
     66 H242        -5.0680    -2.2100    -1.3310 hc         1 HC2       0.034700
     67 H25         -7.3050    -2.0690     0.7580 hc         1 HC2       0.044700
     68 H261        -7.4990    -1.9540    -2.3040 hc         1 HC2       0.031700
     69 H262        -8.8820    -2.1310    -1.2040 hc         1 HC2       0.031700
     70 H263        -7.9160    -0.6530    -1.1660 hc         1 HC2       0.031700
     71 H271        -6.6880    -4.3080    -1.2440 hc         1 HC2       0.031700
     72 H272        -6.4330    -4.3800     0.5140 hc         1 HC2       0.031700
     73 H273        -8.0770    -4.2510    -0.1360 hc         1 HC2       0.031700
     74 HO1          8.1900    -1.1770    -1.3690 ho         1 HC2       0.441000
     75 HO2         -3.1480     1.0110     2.0660 ho         1 HC2       0.442000
@<TRIPOS>BOND
     1     1     2 1   
     2     1    10 1   
     3     1    30 1   
     4     1    31 1   
     5     2     3 1   
     6     2    32 1   
     7     2    33 1   
     8     3     4 1   
     9     3    28 1   
    10     3    34 1   
    11     4     5 1   
    12     4    35 1   
    13     4    36 1   
    14     5     6 2   
    15     5    10 1   
    16     6     7 1   
    17     6    37 1   
    18     7     8 1   
    19     7    38 1   
    20     7    39 1   
    21     8     9 1   
    22     8    14 1   
    23     8    40 1   
    24     9    10 1   
    25     9    11 1   
    26     9    41 1   
    27    10    19 1   
    28    11    12 1   
    29    11    42 1   
    30    11    43 1   
    31    12    13 1   
    32    12    44 1   
    33    12    45 1   
    34    13    14 1   
    35    13    17 1   
    36    13    18 1   
    37    14    15 1   
    38    14    46 1   
    39    15    16 1   
    40    15    47 1   
    41    15    48 1   
    42    16    17 1   
    43    16    49 1   
    44    16    50 1   
    45    17    20 1   
    46    17    51 1   
    47    18    52 1   
    48    18    53 1   
    49    18    54 1   
    50    19    55 1   
    51    19    56 1   
    52    19    57 1   
    53    20    21 1   
    54    20    22 1   
    55    20    29 1   
    56    21    58 1   
    57    21    59 1   
    58    21    60 1   
    59    22    23 1   
    60    22    61 1   
    61    22    62 1   
    62    23    24 1   
    63    23    63 1   
    64    23    64 1   
    65    24    25 1   
    66    24    65 1   
    67    24    66 1   
    68    25    26 1   
    69    25    27 1   
    70    25    67 1   
    71    26    68 1   
    72    26    69 1   
    73    26    70 1   
    74    27    71 1   
    75    27    72 1   
    76    27    73 1   
    77    28    74 1   
    78    29    75 1   
@<TRIPOS>SUBSTRUCTURE
     1 HC2         1 TEMP              0 ****  ****    0 ROOT
