@<TRIPOS>MOLECULE
HC2
   75    78     1     0     0
SMALL
bcc


@<TRIPOS>ATOM
      1 C1           3.8250    -1.8250    -0.9490 c6         1 HC2      -0.067400
      2 C2           5.2170    -2.4170    -0.7610 c6         1 HC2      -0.072400
      3 C3           6.2680    -1.3260    -0.8250 c6         1 HC2       0.150100
      4 C4           5.9690    -0.2500     0.2180 c6         1 HC2      -0.074200
      5 C5           4.5660     0.2850     0.0990 c2         1 HC2      -0.107400
      6 C6           4.3430     1.5950    -0.0020 c2         1 HC2      -0.166200
      7 C7           2.9910     2.2270    -0.0570 c6         1 HC2      -0.037200
      8 C8           1.8830     1.2630     0.3490 c6         1 HC2      -0.043700
      9 C9           2.1100    -0.0920    -0.3380 c6         1 HC2      -0.046700
     10 C10          3.4490    -0.7470     0.0890 c6         1 HC2       0.003200
     11 C11          0.9090    -1.0350    -0.1860 c6         1 HC2      -0.070400
     12 C12         -0.4330    -0.3920    -0.5400 c6         1 HC2      -0.065400
     13 C13         -0.6700     0.8840     0.2690 c5         1 HC2      -0.038000
     14 C14          0.5190     1.8130    -0.0370 c5         1 HC2      -0.064700
     15 C15          0.0930     3.1620     0.5250 c5         1 HC2      -0.073400
     16 C16         -1.4180     3.2160     0.2290 c5         1 HC2      -0.073400
     17 C17         -1.8370     1.7890    -0.2140 c5         1 HC2      -0.082700
     18 C18         -0.7550     0.5620     1.7660 c3         1 HC2      -0.084100
     19 C19          3.3400    -1.3870     1.4830 c3         1 HC2      -0.079100
     20 C20         -3.3180     1.4700     0.1230 c3         1 HC2       0.175800
     21 C21         -4.1950     2.4340    -0.6750 c3         1 HC2      -0.083100
     22 C22         -3.6680     0.0150    -0.2240 c3         1 HC2      -0.103400
     23 C23         -5.1370    -0.3670    -0.0800 c3         1 HC2      -0.073400
     24 C24         -5.3500    -1.8700    -0.2330 c3         1 HC2      -0.074400
     25 C25         -6.7770    -2.3440     0.0440 c3         1 HC2      -0.059700
     26 C26         -7.7820    -1.7570    -0.9430 c3         1 HC2      -0.086600
     27 C27         -6.8440    -3.8680     0.0310 c3         1 HC2      -0.086600
     28 O1           7.5380    -1.9140    -0.6290 oh         1 HC2      -0.597800
     29 O2          -3.6300     1.7250     1.4880 oh         1 HC2      -0.601800
     30 H11          3.7690    -1.3800    -1.9480 hc         1 HC2       0.042200
     31 H12          3.0870    -2.6300    -0.9300 hc         1 HC2       0.042200
     32 H21          5.4020    -3.1590    -1.5420 hc         1 HC2       0.053200
     33 H22          5.2900    -2.9440     0.1960 hc         1 HC2       0.053200
     34 H3           6.2130    -0.8580    -1.8200 h1         1 HC2       0.029700
     35 H41          6.6850     0.5710     0.1250 hc         1 HC2       0.049700
     36 H42          6.1270    -0.6870     1.2110 hc         1 HC2       0.049700
     37 H6           5.1950     2.2680    -0.0290 ha         1 HC2       0.118000
     38 H71          2.7990     2.6090    -1.0690 hc         1 HC2       0.047200
     39 H72          2.9820     3.1090     0.5910 hc         1 HC2       0.047200
     40 H8           1.9380     1.1380     1.4370 hc         1 HC2       0.054700
     41 H9           2.2050     0.1320    -1.4120 hc         1 HC2       0.045700
     42 H111         1.0480    -1.9130    -0.8200 hc         1 HC2       0.040700
     43 H112         0.8520    -1.4120     0.8370 hc         1 HC2       0.040700
     44 H121        -0.4530    -0.1380    -1.6070 hc         1 HC2       0.040200
     45 H122        -1.2220    -1.1290    -0.3850 hc         1 HC2       0.040200
     46 H14          0.5350     1.9200    -1.1340 hc         1 HC2       0.042700
     47 H151         0.6330     3.9930     0.0690 hc         1 HC2       0.042200
     48 H152         0.2880     3.2160     1.6000 hc         1 HC2       0.042200
     49 H161        -1.6340     3.9410    -0.5560 hc         1 HC2       0.049200
     50 H162        -1.9800     3.5330     1.1080 hc         1 HC2       0.049200
     51 H17         -1.7820     1.7510    -1.3110 hc         1 HC2       0.046700
     52 H181         0.1870     0.1760     2.1540 hc         1 HC2       0.034033
     53 H182        -1.0060     1.4340     2.3710 hc         1 HC2       0.034033
     54 H183        -1.4970    -0.2160     1.9660 hc         1 HC2       0.034033
     55 H191         4.3130    -1.6710     1.8820 hc         1 HC2       0.034700
     56 H192         2.8860    -0.7020     2.2020 hc         1 HC2       0.034700
     57 H193         2.7320    -2.2930     1.4590 hc         1 HC2       0.034700
     58 H211        -5.2530     2.2940    -0.4520 hc         1 HC2       0.041700
     59 H212        -3.9510     3.4740    -0.4520 hc         1 HC2       0.041700
     60 H213        -4.0570     2.2830    -1.7460 hc         1 HC2       0.041700
     61 H221        -3.0830    -0.6440     0.4260 hc         1 HC2       0.041200
     62 H222        -3.3310    -0.1990    -1.2430 hc         1 HC2       0.041200
     63 H231        -5.7380     0.1670    -0.8200 hc         1 HC2       0.045700
     64 H232        -5.5070    -0.0550     0.9020 hc         1 HC2       0.045700
     65 H241        -4.6720    -2.3900     0.4540 hc         1 HC2       0.034700
     66 H242        -5.0560    -2.1840    -1.2420 hc         1 HC2       0.034700
     67 H25         -7.0510    -2.0030     1.0500 hc         1 HC2       0.044700
     68 H261        -7.5310    -2.0430    -1.9680 hc         1 HC2       0.031700
     69 H262        -8.7910    -2.1190    -0.7370 hc         1 HC2       0.031700
     70 H263        -7.8130    -0.6680    -0.9000 hc         1 HC2       0.031700
     71 H271        -6.5800    -4.2630    -0.9530 hc         1 HC2       0.031700
     72 H272        -6.1540    -4.3030     0.7570 hc         1 HC2       0.031700
     73 H273        -7.8470    -4.2260     0.2700 hc         1 HC2       0.031700
     74 HO1          8.2050    -1.2250    -0.7150 ho         1 HC2       0.402000
     75 HO2         -3.1700     1.0790     2.0320 ho         1 HC2       0.403000
@<TRIPOS>BOND
     1     1     2 1   
     2     1    10 1   
     3     1    30 1   
     4     1    31 1   
     5     2     3 1   
     6     2    32 1   
     7     2    33 1   
     8     3     4 1   
     9     3    28 1   
    10     3    34 1   
    11     4     5 1   
    12     4    35 1   
    13     4    36 1   
    14     5     6 2   
    15     5    10 1   
    16     6     7 1   
    17     6    37 1   
    18     7     8 1   
    19     7    38 1   
    20     7    39 1   
    21     8     9 1   
    22     8    14 1   
    23     8    40 1   
    24     9    10 1   
    25     9    11 1   
    26     9    41 1   
    27    10    19 1   
    28    11    12 1   
    29    11    42 1   
    30    11    43 1   
    31    12    13 1   
    32    12    44 1   
    33    12    45 1   
    34    13    14 1   
    35    13    17 1   
    36    13    18 1   
    37    14    15 1   
    38    14    46 1   
    39    15    16 1   
    40    15    47 1   
    41    15    48 1   
    42    16    17 1   
    43    16    49 1   
    44    16    50 1   
    45    17    20 1   
    46    17    51 1   
    47    18    52 1   
    48    18    53 1   
    49    18    54 1   
    50    19    55 1   
    51    19    56 1   
    52    19    57 1   
    53    20    21 1   
    54    20    22 1   
    55    20    29 1   
    56    21    58 1   
    57    21    59 1   
    58    21    60 1   
    59    22    23 1   
    60    22    61 1   
    61    22    62 1   
    62    23    24 1   
    63    23    63 1   
    64    23    64 1   
    65    24    25 1   
    66    24    65 1   
    67    24    66 1   
    68    25    26 1   
    69    25    27 1   
    70    25    67 1   
    71    26    68 1   
    72    26    69 1   
    73    26    70 1   
    74    27    71 1   
    75    27    72 1   
    76    27    73 1   
    77    28    74 1   
    78    29    75 1   
@<TRIPOS>SUBSTRUCTURE
     1 HC2         1 TEMP              0 ****  ****    0 ROOT
