@<TRIPOS>MOLECULE
HC3
   75    78     1     0     0
SMALL
No Charge or Current Charge


@<TRIPOS>ATOM
      1 C18         -0.2600     0.6440    -1.9410 c3         1 HC3      -0.078100
      2 C13         -0.2090     0.2600    -0.4210 c5         1 HC3      -0.035000
      3 C12          0.4360     1.4360     0.3820 c6         1 HC3      -0.061400
      4 C11          1.9450     1.6130     0.0530 c6         1 HC3      -0.071400
      5 C9           2.7860     0.3080     0.2770 c6         1 HC3      -0.046700
      6 C10          4.3210     0.4820    -0.0860 c6         1 HC3       0.004200
      7 C19          4.5230     1.0010    -1.5530 c3         1 HC3      -0.079100
      8 C1           4.9800     1.4750     0.9340 c6         1 HC3      -0.067400
      9 C2           6.5270     1.4960     0.8790 c6         1 HC3      -0.072400
     10 C3           7.1030     0.0820     1.1020 c6         1 HC3       0.173300
     11 O1           8.5320     0.1230     1.0480 oh         1 HC3      -0.660000
     12 C4           6.5560    -0.8950     0.0370 c6         1 HC3      -0.074200
     13 C5           5.0240    -0.9230    -0.0040 c2         1 HC3      -0.107400
     14 C6           4.3760    -2.1180     0.0060 c2         1 HC3      -0.217200
     15 C7           2.8650    -2.2460    -0.0450 c6         1 HC3      -0.037200
     16 C8           2.1400    -0.9270    -0.4440 c6         1 HC3      -0.041700
     17 C14          0.6240    -1.0200    -0.0900 c5         1 HC3      -0.065700
     18 C15         -0.1930    -2.1480    -0.7690 c5         1 HC3      -0.072400
     19 C16         -1.6710    -1.7320    -0.4940 c5         1 HC3      -0.076400
     20 C17         -1.6030    -0.2590     0.1180 c5         1 HC3      -0.054700
     21 C20         -2.9070     0.5720    -0.1620 c3         1 HC3      -0.046700
     22 C21         -2.8260     2.0480     0.3040 c3         1 HC3      -0.086100
     23 C22         -4.1830    -0.1350     0.4520 c3         1 HC3      -0.078400
     24 C23         -5.6040     0.4500     0.1270 c3         1 HC3      -0.070400
     25 C24         -6.7550    -0.4370     0.6730 c3         1 HC3      -0.103400
     26 C25         -8.2040     0.0370     0.3490 c3         1 HC3       0.184000
     27 C26         -9.2310    -0.9740     0.9100 c3         1 HC3      -0.100100
     28 C27         -8.4990     1.4530     0.9000 c3         1 HC3      -0.100100
     29 O2          -8.3700     0.0750    -1.0690 oh         1 HC3      -0.659000
     30 H181         0.7370     0.7470    -2.3820 hc         1 HC3       0.032367
     31 H182        -0.7960    -0.0960    -2.5470 hc         1 HC3       0.032367
     32 H183        -0.7760     1.5990    -2.0880 hc         1 HC3       0.032367
     33 H121         0.3230     1.2560     1.4600 hc         1 HC3       0.040200
     34 H122        -0.0680     2.3860     0.1780 hc         1 HC3       0.040200
     35 H111         2.3370     2.4220     0.6820 hc         1 HC3       0.039700
     36 H112         2.0420     1.9660    -0.9790 hc         1 HC3       0.039700
     37 H9           2.7340     0.0890     1.3530 hc         1 HC3       0.045700
     38 H191         5.5790     1.0210    -1.8410 hc         1 HC3       0.034700
     39 H192         4.0120     0.3670    -2.2860 hc         1 HC3       0.034700
     40 H193         4.1540     2.0240    -1.6820 hc         1 HC3       0.034700
     41 H11          4.6790     1.2080     1.9560 hc         1 HC3       0.042200
     42 H12          4.6110     2.4960     0.7680 hc         1 HC3       0.042200
     43 H21          6.9090     2.1750     1.6530 hc         1 HC3       0.052700
     44 H22          6.8720     1.9000    -0.0820 hc         1 HC3       0.052700
     45 H3           6.7800    -0.2710     2.0940 h1         1 HC3       0.030700
     46 HO1          8.8470    -0.7840     1.2580 ho         1 HC3       0.440000
     47 H41          6.9480    -1.9030     0.2330 hc         1 HC3       0.049700
     48 H42          6.9420    -0.6140    -0.9520 hc         1 HC3       0.049700
     49 H6           4.9300    -3.0560     0.0530 ha         1 HC3       0.167000
     50 H71          2.5200    -2.5860     0.9410 hc         1 HC3       0.046700
     51 H72          2.5950    -3.0400    -0.7550 hc         1 HC3       0.046700
     52 H8           2.2370    -0.8040    -1.5290 hc         1 HC3       0.054700
     53 H14          0.6180    -1.1910     0.9960 hc         1 HC3       0.042700
     54 H151         0.0380    -3.1320    -0.3460 hc         1 HC3       0.041700
     55 H152         0.0140    -2.2110    -1.8440 hc         1 HC3       0.041700
     56 H161        -2.1700    -2.4850     0.1470 hc         1 HC3       0.040200
     57 H162        -2.2350    -1.7310    -1.4340 hc         1 HC3       0.040200
     58 H17         -1.5500    -0.3390     1.2120 hc         1 HC3       0.043700
     59 H20         -3.0640     0.6000    -1.2480 hc         1 HC3       0.047700
     60 H211        -2.1440     2.6190    -0.3320 hc         1 HC3       0.032700
     61 H212        -3.7940     2.5530     0.2270 hc         1 HC3       0.032700
     62 H213        -2.4870     2.1150     1.3450 hc         1 HC3       0.032700
     63 H221        -4.1940    -1.1790     0.1200 hc         1 HC3       0.035700
     64 H222        -4.0640    -0.1700     1.5420 hc         1 HC3       0.035700
     65 H231        -5.6900     1.4510     0.5620 hc         1 HC3       0.045700
     66 H232        -5.7020     0.5570    -0.9600 hc         1 HC3       0.045700
     67 H241        -6.6220    -1.4550     0.2850 hc         1 HC3       0.039200
     68 H242        -6.6460    -0.5110     1.7620 hc         1 HC3       0.039200
     69 H261        -9.1620    -1.0300     2.0030 hc         1 HC3       0.041200
     70 H262       -10.2550    -0.6780     0.6510 hc         1 HC3       0.041200
     71 H263        -9.0570    -1.9790     0.5080 hc         1 HC3       0.041200
     72 H271        -7.8730     2.2110     0.4160 hc         1 HC3       0.041200
     73 H272        -9.5460     1.7290     0.7240 hc         1 HC3       0.041200
     74 H273        -8.3150     1.4950     1.9800 hc         1 HC3       0.041200
     75 HO2         -8.0980    -0.8040    -1.4100 ho         1 HC3       0.438000
@<TRIPOS>BOND
     1     1     2 1   
     2     1    30 1   
     3     1    31 1   
     4     1    32 1   
     5     2     3 1   
     6     2    17 1   
     7     2    20 1   
     8     3     4 1   
     9     3    33 1   
    10     3    34 1   
    11     4     5 1   
    12     4    35 1   
    13     4    36 1   
    14     5     6 1   
    15     5    16 1   
    16     5    37 1   
    17     6     7 1   
    18     6     8 1   
    19     6    13 1   
    20     7    38 1   
    21     7    39 1   
    22     7    40 1   
    23     8     9 1   
    24     8    41 1   
    25     8    42 1   
    26     9    10 1   
    27     9    43 1   
    28     9    44 1   
    29    10    11 1   
    30    10    12 1   
    31    10    45 1   
    32    11    46 1   
    33    12    13 1   
    34    12    47 1   
    35    12    48 1   
    36    13    14 2   
    37    14    15 1   
    38    14    49 1   
    39    15    16 1   
    40    15    50 1   
    41    15    51 1   
    42    16    17 1   
    43    16    52 1   
    44    17    18 1   
    45    17    53 1   
    46    18    19 1   
    47    18    54 1   
    48    18    55 1   
    49    19    20 1   
    50    19    56 1   
    51    19    57 1   
    52    20    21 1   
    53    20    58 1   
    54    21    22 1   
    55    21    23 1   
    56    21    59 1   
    57    22    60 1   
    58    22    61 1   
    59    22    62 1   
    60    23    24 1   
    61    23    63 1   
    62    23    64 1   
    63    24    25 1   
    64    24    65 1   
    65    24    66 1   
    66    25    26 1   
    67    25    67 1   
    68    25    68 1   
    69    26    27 1   
    70    26    28 1   
    71    26    29 1   
    72    27    69 1   
    73    27    70 1   
    74    27    71 1   
    75    28    72 1   
    76    28    73 1   
    77    28    74 1   
    78    29    75 1   
@<TRIPOS>SUBSTRUCTURE
     1 HC3         1 TEMP              0 ****  ****    0 ROOT
