@<TRIPOS>MOLECULE
HC3
   75    78     1     0     0
SMALL
bcc


@<TRIPOS>ATOM
      1 C18         -0.3180     0.6240    -1.8370 c3         1 HC3      -0.078100
      2 C13         -0.2340     0.2640    -0.3500 c5         1 HC3      -0.035000
      3 C12          0.4150     1.3940     0.4520 c6         1 HC3      -0.061400
      4 C11          1.8960     1.5600     0.1010 c6         1 HC3      -0.071400
      5 C9           2.7200     0.2760     0.2570 c6         1 HC3      -0.046700
      6 C10          4.2200     0.4650    -0.0870 c6         1 HC3       0.004200
      7 C19          4.4130     1.1240    -1.4620 c3         1 HC3      -0.079100
      8 C1           4.8630     1.3470     1.0050 c6         1 HC3      -0.067400
      9 C2           6.3860     1.4080     0.9620 c6         1 HC3      -0.072400
     10 C3           6.9770     0.0160     1.0580 c6         1 HC3       0.150100
     11 O1           8.3860     0.1190     1.0200 oh         1 HC3      -0.597800
     12 C4           6.4360    -0.8490    -0.0770 c6         1 HC3      -0.074200
     13 C5           4.9300    -0.8790    -0.0950 c2         1 HC3      -0.107400
     14 C6           4.2810    -2.0420    -0.1240 c2         1 HC3      -0.167200
     15 C7           2.7990    -2.1950    -0.1880 c6         1 HC3      -0.037200
     16 C8           2.0740    -0.8910    -0.5020 c6         1 HC3      -0.041700
     17 C14          0.6120    -0.9950    -0.1020 c5         1 HC3      -0.065700
     18 C15         -0.2230    -2.1290    -0.6830 c5         1 HC3      -0.072400
     19 C16         -1.6700    -1.7020    -0.3710 c5         1 HC3      -0.076400
     20 C17         -1.6090    -0.2410     0.1560 c5         1 HC3      -0.054700
     21 C20         -2.8810     0.5470    -0.1860 c3         1 HC3      -0.046700
     22 C21         -2.8030     2.0190     0.2080 c3         1 HC3      -0.086100
     23 C22         -4.0910    -0.1230     0.4820 c3         1 HC3      -0.078400
     24 C23         -5.4570     0.3900     0.0360 c3         1 HC3      -0.070400
     25 C24         -6.5840    -0.3890     0.7030 c3         1 HC3      -0.103400
     26 C25         -8.0110     0.0100     0.3000 c3         1 HC3       0.160800
     27 C26         -9.0040    -0.9070     1.0140 c3         1 HC3      -0.100100
     28 C27         -8.3070     1.4610     0.6600 c3         1 HC3      -0.100100
     29 O2          -8.1810    -0.0910    -1.1090 oh         1 HC3      -0.596800
     30 H181         0.6540     0.8690    -2.2660 hc         1 HC3       0.032367
     31 H182        -0.7350    -0.1870    -2.4360 hc         1 HC3       0.032367
     32 H183        -0.9600     1.4930    -1.9900 hc         1 HC3       0.032367
     33 H121         0.3120     1.1710     1.5210 hc         1 HC3       0.040200
     34 H122        -0.0860     2.3500     0.2890 hc         1 HC3       0.040200
     35 H111         2.3160     2.3500     0.7300 hc         1 HC3       0.039700
     36 H112         1.9750     1.9250    -0.9250 hc         1 HC3       0.039700
     37 H9           2.6830    -0.0010     1.3210 hc         1 HC3       0.045700
     38 H191         5.4620     1.1360    -1.7600 hc         1 HC3       0.034700
     39 H192         3.8670     0.5890    -2.2400 hc         1 HC3       0.034700
     40 H193         4.0730     2.1600    -1.4620 hc         1 HC3       0.034700
     41 H11          4.5550     0.9660     1.9850 hc         1 HC3       0.042200
     42 H12          4.4700     2.3630     0.9330 hc         1 HC3       0.042200
     43 H21          6.7460     2.0270     1.7880 hc         1 HC3       0.052700
     44 H22          6.7260     1.8880     0.0380 hc         1 HC3       0.052700
     45 H3           6.6520    -0.4300     2.0110 h1         1 HC3       0.030700
     46 HO1          8.7520    -0.7650     1.1110 ho         1 HC3       0.401000
     47 H41          6.8190    -1.8710     0.0090 hc         1 HC3       0.049700
     48 H42          6.8210    -0.4500    -1.0230 hc         1 HC3       0.049700
     49 H6           4.8630    -2.9600    -0.1060 ha         1 HC3       0.117000
     50 H71          2.4390    -2.6000     0.7680 hc         1 HC3       0.046700
     51 H72          2.5460    -2.9560    -0.9330 hc         1 HC3       0.046700
     52 H8           2.1480    -0.7060    -1.5810 hc         1 HC3       0.054700
     53 H14          0.6130    -1.1370     0.9910 hc         1 HC3       0.042700
     54 H151         0.0300    -3.0960    -0.2450 hc         1 HC3       0.041700
     55 H152        -0.0540    -2.2220    -1.7600 hc         1 HC3       0.041700
     56 H161        -2.1290    -2.3660     0.3610 hc         1 HC3       0.040200
     57 H162        -2.2970    -1.7490    -1.2650 hc         1 HC3       0.040200
     58 H17         -1.5360    -0.2730     1.2530 hc         1 HC3       0.043700
     59 H20         -3.0290     0.4890    -1.2730 hc         1 HC3       0.047700
     60 H211        -2.0450     2.5550    -0.3620 hc         1 HC3       0.032700
     61 H212        -3.7480     2.5320     0.0320 hc         1 HC3       0.032700
     62 H213        -2.5570     2.1290     1.2670 hc         1 HC3       0.032700
     63 H221        -4.0630    -1.1990     0.2900 hc         1 HC3       0.035700
     64 H222        -3.9990    -0.0140     1.5700 hc         1 HC3       0.035700
     65 H231        -5.5580     1.4530     0.2690 hc         1 HC3       0.045700
     66 H232        -5.5400     0.3040    -1.0510 hc         1 HC3       0.045700
     67 H241        -6.4530    -1.4570     0.4890 hc         1 HC3       0.039200
     68 H242        -6.4940    -0.2940     1.7910 hc         1 HC3       0.039200
     69 H261        -8.9170    -0.8120     2.0980 hc         1 HC3       0.041200
     70 H262       -10.0310    -0.6640     0.7370 hc         1 HC3       0.041200
     71 H263        -8.8250    -1.9550     0.7630 hc         1 HC3       0.041200
     72 H271        -7.6680     2.1560     0.1150 hc         1 HC3       0.041200
     73 H272        -9.3450     1.7150     0.4360 hc         1 HC3       0.041200
     74 H273        -8.1460     1.6250     1.7260 hc         1 HC3       0.041200
     75 HO2         -7.9760    -0.9950    -1.3700 ho         1 HC3       0.399000
@<TRIPOS>BOND
     1     1     2 1   
     2     1    30 1   
     3     1    31 1   
     4     1    32 1   
     5     2     3 1   
     6     2    17 1   
     7     2    20 1   
     8     3     4 1   
     9     3    33 1   
    10     3    34 1   
    11     4     5 1   
    12     4    35 1   
    13     4    36 1   
    14     5     6 1   
    15     5    16 1   
    16     5    37 1   
    17     6     7 1   
    18     6     8 1   
    19     6    13 1   
    20     7    38 1   
    21     7    39 1   
    22     7    40 1   
    23     8     9 1   
    24     8    41 1   
    25     8    42 1   
    26     9    10 1   
    27     9    43 1   
    28     9    44 1   
    29    10    11 1   
    30    10    12 1   
    31    10    45 1   
    32    11    46 1   
    33    12    13 1   
    34    12    47 1   
    35    12    48 1   
    36    13    14 2   
    37    14    15 1   
    38    14    49 1   
    39    15    16 1   
    40    15    50 1   
    41    15    51 1   
    42    16    17 1   
    43    16    52 1   
    44    17    18 1   
    45    17    53 1   
    46    18    19 1   
    47    18    54 1   
    48    18    55 1   
    49    19    20 1   
    50    19    56 1   
    51    19    57 1   
    52    20    21 1   
    53    20    58 1   
    54    21    22 1   
    55    21    23 1   
    56    21    59 1   
    57    22    60 1   
    58    22    61 1   
    59    22    62 1   
    60    23    24 1   
    61    23    63 1   
    62    23    64 1   
    63    24    25 1   
    64    24    65 1   
    65    24    66 1   
    66    25    26 1   
    67    25    67 1   
    68    25    68 1   
    69    26    27 1   
    70    26    28 1   
    71    26    29 1   
    72    27    69 1   
    73    27    70 1   
    74    27    71 1   
    75    28    72 1   
    76    28    73 1   
    77    28    74 1   
    78    29    75 1   
@<TRIPOS>SUBSTRUCTURE
     1 HC3         1 TEMP              0 ****  ****    0 ROOT
