@<TRIPOS>MOLECULE
HC4
   19    19     1     0     0
SMALL
bcc


@<TRIPOS>ATOM
      1 C1          -0.0270    -0.0520     3.4940 c          1 HC4       0.905800
      2 O1          -1.2470    -0.0540     3.7590 o          1 HC4      -0.829800
      3 O2           0.9120    -0.0500     4.3180 o          1 HC4      -0.829800
      4 C2           0.3810    -0.0260     2.0400 ce         1 HC4      -0.167200
      5 C3          -0.5010     0.0140     1.0370 cf         1 HC4      -0.186200
      6 C7          -0.2140     0.0470    -0.3960 ca         1 HC4      -0.028800
      7 C8          -1.2710     0.1150    -1.3060 ca         1 HC4      -0.106000
      8 C9          -1.0560     0.1420    -2.6750 ca         1 HC4      -0.193500
      9 C4           0.2430     0.1130    -3.1720 ca         1 HC4       0.095100
     10 C5           1.3150     0.0500    -2.2810 ca         1 HC4      -0.193500
     11 C6           1.0830     0.0130    -0.9200 ca         1 HC4      -0.106000
     12 O4           0.5250     0.1200    -4.4890 oh         1 HC4      -0.511100
     13 H2           1.4490    -0.0360     1.8370 ha         1 HC4       0.092000
     14 H3          -1.5550     0.0270     1.2990 ha         1 HC4       0.139000
     15 H1          -2.2900     0.1390    -0.9370 ha         1 HC4       0.133000
     16 H4          -1.9020     0.1850    -3.3520 ha         1 HC4       0.121000
     17 H5           2.3280     0.0250    -2.6640 ha         1 HC4       0.121000
     18 H6           1.9340    -0.0390    -0.2530 ha         1 HC4       0.133000
     19 HO4         -0.2760     0.2640    -5.0050 ho         1 HC4       0.411000
@<TRIPOS>BOND
     1     1     2 1   
     2     1     3 1   
     3     1     4 1   
     4     4     5 2   
     5     4    13 1   
     6     5     6 1   
     7     5    14 1   
     8     6     7 ar  
     9     6    11 ar  
    10     7     8 ar  
    11     7    15 1   
    12     8     9 ar  
    13     8    16 1   
    14     9    10 ar  
    15     9    12 1   
    16    10    11 ar  
    17    10    17 1   
    18    11    18 1   
    19    12    19 1   
@<TRIPOS>SUBSTRUCTURE
     1 HC4         1 TEMP              0 ****  ****    0 ROOT
