@<TRIPOS>MOLECULE
HC4
   19    19     1     0     0
SMALL
No Charge or Current Charge


@<TRIPOS>ATOM
      1 C1          -0.0130    -0.0580     3.5410 c          1 HC4       0.695200
      2 O1          -1.1960    -0.0300     3.8440 o          1 HC4      -0.724500
      3 O2           0.8900    -0.1090     4.3600 o          1 HC4      -0.724500
      4 C2           0.3660    -0.0300     2.0920 ce         1 HC4      -0.217200
      5 C3          -0.5010     0.0260     1.0330 cf         1 HC4      -0.236200
      6 C7          -0.2160     0.0560    -0.4170 ca         1 HC4      -0.028800
      7 C8          -1.2890     0.1150    -1.3300 ca         1 HC4      -0.088000
      8 C9          -1.0490     0.1450    -2.7160 ca         1 HC4      -0.175500
      9 C4           0.2670     0.1180    -3.2000 ca         1 HC4       0.095100
     10 C5           1.3420     0.0600    -2.3020 ca         1 HC4      -0.175500
     11 C6           1.1040     0.0290    -0.9160 ca         1 HC4      -0.088000
     12 O4           0.5060     0.1470    -4.5410 oh         1 HC4      -0.550100
     13 H2           1.4360    -0.0590     1.9100 ha         1 HC4       0.142000
     14 H3          -1.5670     0.0520     1.2730 ha         1 HC4       0.189000
     15 H1          -2.3140     0.1370    -0.9670 ha         1 HC4       0.115000
     16 H4          -1.8900     0.1900    -3.4050 ha         1 HC4       0.103000
     17 H5           2.3620     0.0380    -2.6760 ha         1 HC4       0.103000
     18 H6           1.9530    -0.0160    -0.2400 ha         1 HC4       0.115000
     19 HO4         -0.3560     0.1860    -5.0080 ho         1 HC4       0.450000
@<TRIPOS>BOND
     1     1     2 1   
     2     1     3 1   
     3     1     4 1   
     4     4     5 2   
     5     4    13 1   
     6     5     6 1   
     7     5    14 1   
     8     6     7 ar  
     9     6    11 ar  
    10     7     8 ar  
    11     7    15 1   
    12     8     9 ar  
    13     8    16 1   
    14     9    10 ar  
    15     9    12 1   
    16    10    11 ar  
    17    10    17 1   
    18    11    18 1   
    19    12    19 1   
@<TRIPOS>SUBSTRUCTURE
     1 HC4         1 TEMP              0 ****  ****    0 ROOT
