@<TRIPOS>MOLECULE
HC5
   43    42     1     0     0
SMALL
No Charge or Current Charge


@<TRIPOS>ATOM
      1 CAC          6.8200    -0.6250     0.6480 c3         1 HC5      -0.089100
      2 CAD          5.4630    -0.8380    -0.0510 c3         1 HC5      -0.074400
      3 CAE          4.4010     0.2040     0.3610 c3         1 HC5      -0.077400
      4 CAF          3.0410    -0.0090    -0.3400 c3         1 HC5      -0.068400
      5 CAG          1.9780     1.0350     0.0730 c3         1 HC5      -0.138400
      6 CAH          0.6500     0.7880    -0.6460 c          1 HC5       0.603100
      7 OAI          0.4130     1.2100    -1.7690 o          1 HC5      -0.492000
      8 OAK         -0.2510     0.1530     0.1780 os         1 HC5      -0.447100
      9 CAP         -1.5870    -0.1920    -0.2650 c3         1 HC5       0.192300
     10 CAQ         -1.5250    -1.2780    -1.3660 c3         1 HC5      -0.248400
     11 CAR         -0.8700    -2.5420    -0.8110 c          1 HC5       0.724000
     12 OAL          0.3240    -2.7080    -1.0060 o          1 HC5      -0.699500
     13 OAS         -1.5750    -3.3190    -0.1870 o          1 HC5      -0.699500
     14 CAO         -2.3780     1.0770    -0.7010 c3         1 HC5       0.055600
     15 NAN         -2.7230     2.1620     0.3460 n4         1 HC5      -0.491000
     16 CAT         -1.4550     2.8270     0.8980 c3         1 HC5       0.075900
     17 CAJ         -3.5800     3.2370    -0.3330 c3         1 HC5       0.075900
     18 CAM         -3.5240     1.5540     1.5060 c3         1 HC5       0.075900
     19 HAC1         7.5400    -1.3870     0.3260 hc         1 HC5       0.031700
     20 HAC2         7.2320     0.3620     0.4040 hc         1 HC5       0.031700
     21 HAC3         6.7110    -0.6960     1.7370 hc         1 HC5       0.031700
     22 HAD1         5.6120    -0.7970    -1.1370 hc         1 HC5       0.039700
     23 HAD2         5.0950    -1.8450     0.1840 hc         1 HC5       0.039700
     24 HAE1         4.2570     0.1620     1.4480 hc         1 HC5       0.038200
     25 HAE2         4.7730     1.2100     0.1260 hc         1 HC5       0.038200
     26 HAF1         3.1840     0.0320    -1.4270 hc         1 HC5       0.054200
     27 HAF2         2.6680    -1.0150    -0.1050 hc         1 HC5       0.054200
     28 HAG1         1.8260     0.9420     1.1540 hc         1 HC5       0.074200
     29 HAG2         2.3420     2.0370    -0.1810 hc         1 HC5       0.074200
     30 HAP         -2.1340    -0.6330     0.5790 h1         1 HC5       0.099700
     31 HAQ1        -2.5740    -1.4900    -1.6060 hc         1 HC5       0.047200
     32 HAQ2        -0.9600    -0.8840    -2.2160 hc         1 HC5       0.047200
     33 HAO1        -1.8380     1.5650    -1.5140 hx         1 HC5       0.099200
     34 HAO2        -3.3290     0.7340    -1.1130 hx         1 HC5       0.099200
     35 HAT1        -0.8740     3.2370     0.0690 hx         1 HC5       0.091478
     36 HAT2        -1.7390     3.6300     1.5810 hx         1 HC5       0.091478
     37 HAT3        -0.8620     2.0850     1.4350 hx         1 HC5       0.091478
     38 HAJ1        -4.4930     2.7800    -0.7190 hx         1 HC5       0.091478
     39 HAJ2        -3.8340     4.0090     0.3960 hx         1 HC5       0.091478
     40 HAJ3        -3.0150     3.6810    -1.1560 hx         1 HC5       0.091478
     41 HAM1        -2.9090     0.8140     2.0220 hx         1 HC5       0.091478
     42 HAM2        -3.8020     2.3460     2.2040 hx         1 HC5       0.091478
     43 HAM3        -4.4240     1.0780     1.1120 hx         1 HC5       0.091478
@<TRIPOS>BOND
     1     1     2 1   
     2     1    19 1   
     3     1    20 1   
     4     1    21 1   
     5     2     3 1   
     6     2    22 1   
     7     2    23 1   
     8     3     4 1   
     9     3    24 1   
    10     3    25 1   
    11     4     5 1   
    12     4    26 1   
    13     4    27 1   
    14     5     6 1   
    15     5    28 1   
    16     5    29 1   
    17     6     7 2   
    18     6     8 1   
    19     8     9 1   
    20     9    10 1   
    21     9    14 1   
    22     9    30 1   
    23    10    11 1   
    24    10    31 1   
    25    10    32 1   
    26    11    12 1   
    27    11    13 1   
    28    14    15 1   
    29    14    33 1   
    30    14    34 1   
    31    15    16 1   
    32    15    17 1   
    33    15    18 1   
    34    16    35 1   
    35    16    36 1   
    36    16    37 1   
    37    17    38 1   
    38    17    39 1   
    39    17    40 1   
    40    18    41 1   
    41    18    42 1   
    42    18    43 1   
@<TRIPOS>SUBSTRUCTURE
     1 HC5         1 TEMP              0 ****  ****    0 ROOT
