@<TRIPOS>MOLECULE
HC5
   43    42     1     0     0
SMALL
abcg2


@<TRIPOS>ATOM
      1 CAC          6.9090     0.0110     0.5240 c3         1 HC5      -0.089100
      2 CAD          5.6510     0.0180    -0.3340 c3         1 HC5      -0.074400
      3 CAE          4.3750    -0.0180     0.4990 c3         1 HC5      -0.077400
      4 CAF          3.1100    -0.0120    -0.3500 c3         1 HC5      -0.068400
      5 CAG          1.8570    -0.0580     0.5080 c3         1 HC5      -0.138400
      6 CAH          0.5760    -0.0570    -0.2810 c          1 HC5       0.603100
      7 OAI          0.5020    -0.0090    -1.4820 o          1 HC5      -0.492000
      8 OAK         -0.4790    -0.0980     0.5320 os         1 HC5      -0.447100
      9 CAP         -1.8230    -0.2140     0.0400 c3         1 HC5       0.192300
     10 CAQ         -2.0440    -1.4880    -0.7620 c3         1 HC5      -0.248400
     11 CAR         -1.5590    -2.7460    -0.0100 c          1 HC5       0.724000
     12 OAL         -0.9880    -3.6170    -0.6890 o          1 HC5      -0.699500
     13 OAS         -1.8170    -2.7900     1.2080 o          1 HC5      -0.699500
     14 CAO         -2.2990     0.9920    -0.7570 c3         1 HC5       0.055600
     15 NAN         -2.4900     2.2890    -0.0110 n4         1 HC5      -0.491000
     16 CAT         -1.2050     2.8350     0.5110 c3         1 HC5       0.075900
     17 CAJ         -3.0520     3.2680    -0.9870 c3         1 HC5       0.075900
     18 CAM         -3.4520     2.1310     1.1140 c3         1 HC5       0.075900
     19 HAC1         7.8120     0.0350    -0.0860 hc         1 HC5       0.031700
     20 HAC2         6.9350     0.8760     1.1890 hc         1 HC5       0.031700
     21 HAC3         6.9540    -0.8850     1.1460 hc         1 HC5       0.031700
     22 HAD1         5.6430     0.9080    -0.9700 hc         1 HC5       0.039700
     23 HAD2         5.6630    -0.8400    -1.0120 hc         1 HC5       0.039700
     24 HAE1         4.3840    -0.9100     1.1350 hc         1 HC5       0.038200
     25 HAE2         4.3620     0.8400     1.1810 hc         1 HC5       0.038200
     26 HAF1         3.0990     0.8830    -0.9780 hc         1 HC5       0.054200
     27 HAF2         3.1260    -0.8680    -1.0310 hc         1 HC5       0.054200
     28 HAG1         1.8610    -0.9470     1.1470 hc         1 HC5       0.074200
     29 HAG2         1.8330     0.7930     1.1980 hc         1 HC5       0.074200
     30 HAP         -2.4060    -0.3110     0.9550 h1         1 HC5       0.099700
     31 HAQ1        -3.1250    -1.5870    -0.9060 hc         1 HC5       0.047200
     32 HAQ2        -1.6040    -1.4230    -1.7560 hc         1 HC5       0.047200
     33 HAO1        -1.6400     1.2070    -1.5960 hx         1 HC5       0.099200
     34 HAO2        -3.2790     0.7450    -1.1650 hx         1 HC5       0.099200
     35 HAT1        -0.4760     2.8750    -0.2950 hx         1 HC5       0.091478
     36 HAT2        -1.3840     3.8410     0.8820 hx         1 HC5       0.091478
     37 HAT3        -0.8390     2.2180     1.3230 hx         1 HC5       0.091478
     38 HAJ1        -4.0060     2.9010    -1.3560 hx         1 HC5       0.091478
     39 HAJ2        -3.1940     4.2230    -0.4890 hx         1 HC5       0.091478
     40 HAJ3        -2.3570     3.3830    -1.8150 hx         1 HC5       0.091478
     41 HAM1        -3.0220     1.5050     1.8890 hx         1 HC5       0.091478
     42 HAM2        -3.6660     3.1120     1.5300 hx         1 HC5       0.091478
     43 HAM3        -4.3710     1.6830     0.7440 hx         1 HC5       0.091478
@<TRIPOS>BOND
     1     1     2 1   
     2     1    19 1   
     3     1    20 1   
     4     1    21 1   
     5     2     3 1   
     6     2    22 1   
     7     2    23 1   
     8     3     4 1   
     9     3    24 1   
    10     3    25 1   
    11     4     5 1   
    12     4    26 1   
    13     4    27 1   
    14     5     6 1   
    15     5    28 1   
    16     5    29 1   
    17     6     7 2   
    18     6     8 1   
    19     8     9 1   
    20     9    10 1   
    21     9    14 1   
    22     9    30 1   
    23    10    11 1   
    24    10    31 1   
    25    10    32 1   
    26    11    12 1   
    27    11    13 1   
    28    14    15 1   
    29    14    33 1   
    30    14    34 1   
    31    15    16 1   
    32    15    17 1   
    33    15    18 1   
    34    16    35 1   
    35    16    36 1   
    36    16    37 1   
    37    17    38 1   
    38    17    39 1   
    39    17    40 1   
    40    18    41 1   
    41    18    42 1   
    42    18    43 1   
@<TRIPOS>SUBSTRUCTURE
     1 HC5         1 TEMP              0 ****  ****    0 ROOT
