@<TRIPOS>MOLECULE
HC6
   64    67     1     0     0
SMALL
No Charge or Current Charge


@<TRIPOS>ATOM
      1 CAC         -5.6550     0.4300    -0.9670 c6         1 HC6       0.077600
      2 NAA         -7.1970     0.2690    -1.2070 n4         1 HC6      -0.495500
      3 CBA         -7.9570     1.4760    -0.6300 c3         1 HC6       0.077900
      4 CBB         -7.4820     0.1930    -2.7140 c3         1 HC6       0.077900
      5 CAB         -7.6620    -1.0450    -0.5160 c6         1 HC6       0.060600
      6 CAF         -7.1580    -1.1750     0.9420 c6         1 HC6       0.138600
      7 OAE         -5.7110    -1.0830     0.9760 os         1 HC6      -0.443500
      8 CAD         -5.1550     0.1530     0.4870 c6         1 HC6       0.449800
      9 OBC         -5.5620     1.1720     1.3850 oh         1 HC6      -0.683500
     10 CAG         -3.6170     0.0720     0.5120 ca         1 HC6      -0.150800
     11 CAL         -2.8570     1.2340     0.2540 ca         1 HC6      -0.075500
     12 CAK         -1.4530     1.1900     0.2550 ca         1 HC6      -0.095000
     13 CAH         -2.9310    -1.1380     0.7620 ca         1 HC6      -0.075500
     14 CAI         -1.5260    -1.1780     0.7610 ca         1 HC6      -0.095000
     15 CAJ         -0.7560    -0.0160     0.5090 cp         1 HC6      -0.013000
     16 CAM          0.7410    -0.0620     0.5090 cp         1 HC6      -0.013000
     17 CAR          1.4400    -1.1950     0.0280 ca         1 HC6      -0.095000
     18 CAQ          2.8450    -1.2390     0.0260 ca         1 HC6      -0.075500
     19 CAN          1.5090     1.0270     0.9890 ca         1 HC6      -0.095000
     20 CAO          2.9140     0.9870     0.9910 ca         1 HC6      -0.075500
     21 CAP          3.6020    -0.1510     0.5120 ca         1 HC6      -0.150800
     22 CAS          5.1400    -0.2260     0.4820 c6         1 HC6       0.449800
     23 OBD          5.5420    -1.4020     1.1640 oh         1 HC6      -0.683500
     24 CAX          5.6500    -0.2130    -0.9960 c6         1 HC6       0.077600
     25 OAT          5.6920     0.8890     1.2070 os         1 HC6      -0.443500
     26 CAU          7.1400     0.9850     1.2010 c6         1 HC6       0.138600
     27 CAV          7.6520     1.1440    -0.2510 c6         1 HC6       0.060600
     28 NAW          7.1920    -0.0090    -1.1900 n4         1 HC6      -0.495500
     29 CAZ          7.9500    -1.3060    -0.8570 c3         1 HC6       0.077900
     30 CAY          7.4870     0.3620    -2.6510 c3         1 HC6       0.077900
     31 HAC         -5.1710    -0.2840    -1.6380 hx         1 HC6       0.108450
     32 HACA        -5.3710     1.4340    -1.2900 hx         1 HC6       0.108450
     33 HBA         -7.6130     2.3880    -1.1230 hx         1 HC6       0.099450
     34 HBAA        -9.0270     1.3460    -0.8030 hx         1 HC6       0.099450
     35 HBAB        -7.7650     1.5490     0.4420 hx         1 HC6       0.099450
     36 HBB         -6.9500    -0.6600    -3.1400 hx         1 HC6       0.099450
     37 HBBA        -8.5550     0.0720    -2.8720 hx         1 HC6       0.099450
     38 HBBB        -7.1420     1.1130    -3.1930 hx         1 HC6       0.099450
     39 HAB         -8.7540    -1.0780    -0.5670 hx         1 HC6       0.105450
     40 HABA        -7.2700    -1.8710    -1.1170 hx         1 HC6       0.105450
     41 HAF         -7.6030    -0.3930     1.5730 h1         1 HC6       0.096950
     42 HAFA        -7.4640    -2.1480     1.3520 h1         1 HC6       0.096950
     43 HAL         -3.3570     2.1800     0.0500 ha         1 HC6       0.132500
     44 HAK         -0.9000     2.1010     0.0410 ha         1 HC6       0.130750
     45 HAH         -3.4760    -2.0600     0.9580 ha         1 HC6       0.132500
     46 HAI         -1.0300    -2.1220     0.9710 ha         1 HC6       0.130750
     47 HAR          0.8900    -2.0470    -0.3640 ha         1 HC6       0.130750
     48 HAQ          3.3460    -2.1270    -0.3560 ha         1 HC6       0.132500
     49 HAN          1.0110     1.9110     1.3770 ha         1 HC6       0.130750
     50 HAO          3.4570     1.8520     1.3670 ha         1 HC6       0.132500
     51 HAX          5.3680    -1.1340    -1.5120 hx         1 HC6       0.108450
     52 HAXA         5.1690     0.6190    -1.5160 hx         1 HC6       0.108450
     53 HAU          7.4420     1.8590     1.7950 h1         1 HC6       0.096950
     54 HAUA         7.5810     0.0940     1.6680 h1         1 HC6       0.096950
     55 HAV          7.2640     2.0720    -0.6810 hx         1 HC6       0.105450
     56 HAVA         8.7450     1.1850    -0.2880 hx         1 HC6       0.105450
     57 HAZ          7.6100    -2.1030    -1.5210 hx         1 HC6       0.099450
     58 HAZA         9.0210    -1.1450    -0.9940 hx         1 HC6       0.099450
     59 HAZB         7.7510    -1.5880     0.1790 hx         1 HC6       0.099450
     60 HAY          6.9570     1.2820    -2.9050 hx         1 HC6       0.099450
     61 HAYA         8.5610     0.5110    -2.7760 hx         1 HC6       0.099450
     62 HAYB         7.1510    -0.4470    -3.3040 hx         1 HC6       0.099450
     63 H33         -5.1850     0.8910     2.2440 ho         1 HC6       0.500000
     64 H34          5.1600    -1.2950     2.0590 ho         1 HC6       0.500000
@<TRIPOS>BOND
     1     1     2 1   
     2     1     8 1   
     3     1    31 1   
     4     1    32 1   
     5     2     3 1   
     6     2     4 1   
     7     2     5 1   
     8     3    33 1   
     9     3    34 1   
    10     3    35 1   
    11     4    36 1   
    12     4    37 1   
    13     4    38 1   
    14     5     6 1   
    15     5    39 1   
    16     5    40 1   
    17     6     7 1   
    18     6    41 1   
    19     6    42 1   
    20     7     8 1   
    21     8     9 1   
    22     8    10 1   
    23     9    63 1   
    24    10    11 ar  
    25    10    13 ar  
    26    11    12 ar  
    27    11    43 1   
    28    12    15 ar  
    29    12    44 1   
    30    13    14 ar  
    31    13    45 1   
    32    14    15 ar  
    33    14    46 1   
    34    15    16 1   
    35    16    17 ar  
    36    16    19 ar  
    37    17    18 ar  
    38    17    47 1   
    39    18    21 ar  
    40    18    48 1   
    41    19    20 ar  
    42    19    49 1   
    43    20    21 ar  
    44    20    50 1   
    45    21    22 1   
    46    22    23 1   
    47    22    24 1   
    48    22    25 1   
    49    23    64 1   
    50    24    28 1   
    51    24    51 1   
    52    24    52 1   
    53    25    26 1   
    54    26    27 1   
    55    26    53 1   
    56    26    54 1   
    57    27    28 1   
    58    27    55 1   
    59    27    56 1   
    60    28    29 1   
    61    28    30 1   
    62    29    57 1   
    63    29    58 1   
    64    29    59 1   
    65    30    60 1   
    66    30    61 1   
    67    30    62 1   
@<TRIPOS>SUBSTRUCTURE
     1 HC6         1 TEMP              0 ****  ****    0 ROOT
