@<TRIPOS>MOLECULE
HC6
   64    67     1     0     0
SMALL
bcc


@<TRIPOS>ATOM
      1 CAC         -5.4740     0.2610    -0.9780 c6         1 HC6       0.105800
      2 NAA         -6.9480     0.0610    -1.1850 n4         1 HC6      -0.608300
      3 CBA         -7.7240     1.3260    -1.0180 c3         1 HC6       0.106100
      4 CBB         -7.1580    -0.4200    -2.5810 c3         1 HC6       0.106100
      5 CAB         -7.4200    -0.9960    -0.2310 c6         1 HC6       0.088800
      6 CAF         -7.0050    -0.6860     1.1880 c6         1 HC6       0.115400
      7 OAE         -5.6020    -0.5510     1.2930 os         1 HC6      -0.397100
      8 CAD         -5.0540     0.4510     0.4880 c6         1 HC6       0.403400
      9 OBC         -5.4660     1.7170     0.8860 oh         1 HC6      -0.621300
     10 CAG         -3.5430     0.3000     0.5410 ca         1 HC6      -0.150800
     11 CAL         -2.7310     1.4030     0.2980 ca         1 HC6      -0.093500
     12 CAK         -1.3510     1.2760     0.2960 ca         1 HC6      -0.113000
     13 CAH         -2.9450    -0.9360     0.7700 ca         1 HC6      -0.093500
     14 CAI         -1.5650    -1.0580     0.7700 ca         1 HC6      -0.113000
     15 CAJ         -0.7430     0.0440     0.5330 cp         1 HC6      -0.013000
     16 CAM          0.7260    -0.0920     0.5230 cp         1 HC6      -0.013000
     17 CAR          1.3340    -1.2490     0.0370 ca         1 HC6      -0.113000
     18 CAQ          2.7130    -1.3780     0.0260 ca         1 HC6      -0.093500
     19 CAN          1.5480     0.9330     0.9920 ca         1 HC6      -0.113000
     20 CAO          2.9280     0.8090     0.9780 ca         1 HC6      -0.093500
     21 CAP          3.5260    -0.3530     0.5020 ca         1 HC6      -0.150800
     22 CAS          5.0350    -0.5030     0.4320 c6         1 HC6       0.403400
     23 OBD          5.4330    -1.8260     0.5840 oh         1 HC6      -0.621300
     24 CAX          5.4680    -0.0430    -0.9680 c6         1 HC6       0.105800
     25 OAT          5.5890     0.3220     1.4140 os         1 HC6      -0.397100
     26 CAU          6.9960     0.4360     1.3470 c6         1 HC6       0.115400
     27 CAV          7.4360     1.0040     0.0180 c6         1 HC6       0.088800
     28 NAW          6.9450     0.1730    -1.1300 n4         1 HC6      -0.608300
     29 CAZ          7.7020    -1.1100    -1.2330 c3         1 HC6       0.106100
     30 CAY          7.1630     0.9270    -2.3970 c3         1 HC6       0.106100
     31 HAC         -4.9860    -0.6330    -1.3650 hx         1 HC6       0.108450
     32 HACA        -5.1600     1.1100    -1.5840 hx         1 HC6       0.108450
     33 HBA         -7.3010     2.0820    -1.6740 hx         1 HC6       0.099450
     34 HBAA        -8.7560     1.1320    -1.2990 hx         1 HC6       0.099450
     35 HBAB        -7.6810     1.6750     0.0050 hx         1 HC6       0.099450
     36 HBB         -6.5870    -1.3300    -2.7410 hx         1 HC6       0.099450
     37 HBBA        -8.2160    -0.6170    -2.7270 hx         1 HC6       0.099450
     38 HBBB        -6.8260     0.3480    -3.2750 hx         1 HC6       0.099450
     39 HAB         -8.5040    -1.0690    -0.3160 hx         1 HC6       0.105450
     40 HABA        -6.9820    -1.9380    -0.5600 hx         1 HC6       0.105450
     41 HAF         -7.5260     0.1910     1.5810 h1         1 HC6       0.096950
     42 HAFA        -7.2900    -1.5330     1.8110 h1         1 HC6       0.096950
     43 HAL         -3.1660     2.3740     0.0980 ha         1 HC6       0.150500
     44 HAK         -0.7470     2.1490     0.0850 ha         1 HC6       0.148750
     45 HAH         -3.5460    -1.8150     0.9570 ha         1 HC6       0.150500
     46 HAI         -1.1280    -2.0260     0.9780 ha         1 HC6       0.148750
     47 HAR          0.7310    -2.0560    -0.3580 ha         1 HC6       0.148750
     48 HAQ          3.1480    -2.2880    -0.3660 ha         1 HC6       0.150500
     49 HAN          1.1100     1.8370     1.3950 ha         1 HC6       0.148750
     50 HAO          3.5270     1.6270     1.3540 ha         1 HC6       0.150500
     51 HAX          5.1500    -0.7570    -1.7260 hx         1 HC6       0.108450
     52 HAXA         4.9950     0.9150    -1.1820 hx         1 HC6       0.108450
     53 HAU          7.2970     1.1370     2.1240 h1         1 HC6       0.096950
     54 HAUA         7.4870    -0.5170     1.5650 h1         1 HC6       0.096950
     55 HAV          7.0300     2.0060    -0.1210 hx         1 HC6       0.105450
     56 HAVA         8.5210     1.0580    -0.0440 hx         1 HC6       0.105450
     57 HAZ          7.2980    -1.6810    -2.0640 hx         1 HC6       0.099450
     58 HAZA         8.7450    -0.8740    -1.4240 hx         1 HC6       0.099450
     59 HAZB         7.6170    -1.6900    -0.3230 hx         1 HC6       0.099450
     60 HAY          6.6470     1.8820    -2.3420 hx         1 HC6       0.099450
     61 HAYA         8.2290     1.0890    -2.5320 hx         1 HC6       0.099450
     62 HAYB         6.7720     0.3450    -3.2270 hx         1 HC6       0.099450
     63 H33         -5.1350     1.8980     1.7750 ho         1 HC6       0.461000
     64 H34          5.0900    -2.1720     1.4180 ho         1 HC6       0.461000
@<TRIPOS>BOND
     1     1     2 1   
     2     1     8 1   
     3     1    31 1   
     4     1    32 1   
     5     2     3 1   
     6     2     4 1   
     7     2     5 1   
     8     3    33 1   
     9     3    34 1   
    10     3    35 1   
    11     4    36 1   
    12     4    37 1   
    13     4    38 1   
    14     5     6 1   
    15     5    39 1   
    16     5    40 1   
    17     6     7 1   
    18     6    41 1   
    19     6    42 1   
    20     7     8 1   
    21     8     9 1   
    22     8    10 1   
    23     9    63 1   
    24    10    11 ar  
    25    10    13 ar  
    26    11    12 ar  
    27    11    43 1   
    28    12    15 ar  
    29    12    44 1   
    30    13    14 ar  
    31    13    45 1   
    32    14    15 ar  
    33    14    46 1   
    34    15    16 1   
    35    16    17 ar  
    36    16    19 ar  
    37    17    18 ar  
    38    17    47 1   
    39    18    21 ar  
    40    18    48 1   
    41    19    20 ar  
    42    19    49 1   
    43    20    21 ar  
    44    20    50 1   
    45    21    22 1   
    46    22    23 1   
    47    22    24 1   
    48    22    25 1   
    49    23    64 1   
    50    24    28 1   
    51    24    51 1   
    52    24    52 1   
    53    25    26 1   
    54    26    27 1   
    55    26    53 1   
    56    26    54 1   
    57    27    28 1   
    58    27    55 1   
    59    27    56 1   
    60    28    29 1   
    61    28    30 1   
    62    29    57 1   
    63    29    58 1   
    64    29    59 1   
    65    30    60 1   
    66    30    61 1   
    67    30    62 1   
@<TRIPOS>SUBSTRUCTURE
     1 HC6         1 TEMP              0 ****  ****    0 ROOT
