@<TRIPOS>MOLECULE
HC8
   37    38     1     0     0
SMALL
No Charge or Current Charge


@<TRIPOS>ATOM
      1 O21        -12.8140   -29.8960    13.8940 o          1 HC8      -0.519100
      2 C19        -11.9380   -30.0840    14.7290 c          1 HC8       0.598700
      3 C20        -12.1980   -29.8090    16.2110 c3         1 HC8      -0.185100
      4 C18        -10.5770   -30.5750    14.3260 ca         1 HC8      -0.238600
      5 C5          -9.6850   -29.7510    13.6010 ca         1 HC8       0.024700
      6 C4         -10.0290   -28.3190    13.1870 c3         1 HC8      -0.151100
      7 C2          -9.6620   -27.3290    14.2970 c          1 HC8       0.566100
      8 O3         -10.3710   -27.1750    15.2820 o          1 HC8      -0.513100
      9 C1          -8.3590   -26.5520    14.1230 c3         1 HC8      -0.199100
     10 C16        -10.1920   -31.8830    14.6800 ca         1 HC8       0.223100
     11 O17        -11.0750   -32.6690    15.3500 oh         1 HC8      -0.542100
     12 C15         -8.9140   -32.3920    14.3320 ca         1 HC8      -0.161000
     13 C7          -8.0310   -31.5540    13.6160 ca         1 HC8       0.075000
     14 C6          -8.4190   -30.2540    13.2580 ca         1 HC8      -0.171000
     15 C13         -8.4790   -33.7030    14.6680 ca         1 HC8       0.188100
     16 O14         -9.2770   -34.5730    15.3580 oh         1 HC8      -0.574100
     17 C12         -7.2030   -34.1430    14.2950 ca         1 HC8      -0.236000
     18 C9          -6.3360   -33.3050    13.5880 ca         1 HC8       0.197100
     19 C8          -6.7530   -32.0060    13.2480 ca         1 HC8      -0.240000
     20 O10         -5.0930   -33.8010    13.2530 os         1 HC8      -0.345100
     21 C11         -4.1260   -33.0220    12.5260 c3         1 HC8       0.147900
     22 H20        -12.3800   -30.7640    16.7150 hc         1 HC8       0.063700
     23 H20A       -11.2850   -29.4380    16.6870 hc         1 HC8       0.063700
     24 H20B       -13.0560   -29.1450    16.3630 hc         1 HC8       0.063700
     25 H4          -9.4600   -28.0650    12.2850 hc         1 HC8       0.086700
     26 H4A        -11.0940   -28.2180    12.9610 hc         1 HC8       0.086700
     27 H1          -8.3950   -26.0020    13.1760 hc         1 HC8       0.063033
     28 H1A         -8.1470   -25.8870    14.9680 hc         1 HC8       0.063033
     29 H1B         -7.5410   -27.2610    13.9500 hc         1 HC8       0.063033
     30 HO17       -10.5970   -33.5280    15.4860 ho         1 HC8       0.498000
     31 H6          -7.7250   -29.6250    12.7060 ha         1 HC8       0.117000
     32 HO14        -8.7800   -35.4120    15.4820 ho         1 HC8       0.488000
     33 H12         -6.8680   -35.1450    14.5520 ha         1 HC8       0.133000
     34 H8          -6.0980   -31.3380    12.6980 ha         1 HC8       0.126000
     35 H11         -4.5180   -32.7300    11.5430 h1         1 HC8       0.046700
     36 H11A        -3.8570   -32.1150    13.0830 h1         1 HC8       0.046700
     37 H11B        -3.2100   -33.6050    12.3660 h1         1 HC8       0.046700
@<TRIPOS>BOND
     1     1     2 2   
     2     2     3 1   
     3     2     4 1   
     4     3    22 1   
     5     3    23 1   
     6     3    24 1   
     7     4     5 ar  
     8     4    10 ar  
     9     5     6 1   
    10     5    14 ar  
    11     6     7 1   
    12     6    25 1   
    13     6    26 1   
    14     7     8 2   
    15     7     9 1   
    16     9    27 1   
    17     9    28 1   
    18     9    29 1   
    19    10    11 1   
    20    10    12 ar  
    21    11    30 1   
    22    12    13 ar  
    23    12    15 ar  
    24    13    14 ar  
    25    13    19 ar  
    26    14    31 1   
    27    15    16 1   
    28    15    17 ar  
    29    16    32 1   
    30    17    18 ar  
    31    17    33 1   
    32    18    19 ar  
    33    18    20 1   
    34    19    34 1   
    35    20    21 1   
    36    21    35 1   
    37    21    36 1   
    38    21    37 1   
@<TRIPOS>SUBSTRUCTURE
     1 HC8         1 TEMP              0 ****  ****    0 ROOT
