@<TRIPOS>MOLECULE
HC8
   37    38     1     0     0
SMALL
abcg2


@<TRIPOS>ATOM
      1 O21        -12.6120   -29.5840    13.9000 o          1 HC8      -0.519100
      2 C19        -11.7680   -29.9150    14.7160 c          1 HC8       0.598700
      3 C20        -11.9800   -29.6860    16.1880 c3         1 HC8      -0.185100
      4 C18        -10.4470   -30.4630    14.2720 ca         1 HC8      -0.238600
      5 C5          -9.6220   -29.7280    13.3750 ca         1 HC8       0.024700
      6 C4         -10.0260   -28.3510    12.9070 c3         1 HC8      -0.151100
      7 C2          -9.9760   -27.2790    13.9910 c          1 HC8       0.566100
      8 O3         -10.8520   -26.4390    14.0730 o          1 HC8      -0.513100
      9 C1          -8.7970   -27.2930    14.9230 c3         1 HC8      -0.199100
     10 C16        -10.0350   -31.7070    14.7260 ca         1 HC8       0.223100
     11 O17        -10.8960   -32.3920    15.5190 oh         1 HC8      -0.542100
     12 C15         -8.7820   -32.2580    14.3300 ca         1 HC8      -0.161000
     13 C7          -7.9570   -31.5050    13.4440 ca         1 HC8       0.075000
     14 C6          -8.4140   -30.2460    12.9880 ca         1 HC8      -0.171000
     15 C13         -8.2890   -33.5240    14.7620 ca         1 HC8       0.188100
     16 O14         -9.0800   -34.2430    15.6170 oh         1 HC8      -0.574100
     17 C12         -7.0740   -34.0010    14.3510 ca         1 HC8      -0.236000
     18 C9          -6.2710   -33.2360    13.4760 ca         1 HC8       0.197100
     19 C8          -6.7030   -32.0080    13.0260 ca         1 HC8      -0.240000
     20 O10         -5.0900   -33.8110    13.1440 os         1 HC8      -0.345100
     21 C11         -4.2200   -33.1030    12.2590 c3         1 HC8       0.147900
     22 H20        -11.4980   -30.4470    16.7960 hc         1 HC8       0.063700
     23 H20A       -11.5160   -28.7230    16.4310 hc         1 HC8       0.063700
     24 H20B       -13.0440   -29.6240    16.4150 hc         1 HC8       0.063700
     25 H4          -9.3210   -28.0240    12.1360 hc         1 HC8       0.086700
     26 H4A        -11.0240   -28.3420    12.4770 hc         1 HC8       0.086700
     27 H1          -7.8690   -27.4370    14.3670 hc         1 HC8       0.063033
     28 H1A         -8.7610   -26.3720    15.5000 hc         1 HC8       0.063033
     29 H1B         -8.8910   -28.1430    15.6040 hc         1 HC8       0.063033
     30 HO17       -10.4880   -33.2360    15.7880 ho         1 HC8       0.498000
     31 H6          -7.7750   -29.6770    12.3230 ha         1 HC8       0.117000
     32 HO14        -8.6720   -35.0870    15.8520 ho         1 HC8       0.488000
     33 H12         -6.7170   -34.9640    14.6950 ha         1 HC8       0.133000
     34 H8          -6.1060   -31.4080    12.3560 ha         1 HC8       0.126000
     35 H11         -4.7000   -32.9350    11.2930 h1         1 HC8       0.046700
     36 H11A        -3.9220   -32.1450    12.6910 h1         1 HC8       0.046700
     37 H11B        -3.3470   -33.7370    12.1320 h1         1 HC8       0.046700
@<TRIPOS>BOND
     1     1     2 2   
     2     2     3 1   
     3     2     4 1   
     4     3    22 1   
     5     3    23 1   
     6     3    24 1   
     7     4     5 ar  
     8     4    10 ar  
     9     5     6 1   
    10     5    14 ar  
    11     6     7 1   
    12     6    25 1   
    13     6    26 1   
    14     7     8 2   
    15     7     9 1   
    16     9    27 1   
    17     9    28 1   
    18     9    29 1   
    19    10    11 1   
    20    10    12 ar  
    21    11    30 1   
    22    12    13 ar  
    23    12    15 ar  
    24    13    14 ar  
    25    13    19 ar  
    26    14    31 1   
    27    15    16 1   
    28    15    17 ar  
    29    16    32 1   
    30    17    18 ar  
    31    17    33 1   
    32    18    19 ar  
    33    18    20 1   
    34    19    34 1   
    35    20    21 1   
    36    21    35 1   
    37    21    36 1   
    38    21    37 1   
@<TRIPOS>SUBSTRUCTURE
     1 HC8         1 TEMP              0 ****  ****    0 ROOT
