@<TRIPOS>MOLECULE
HC9
   75    78     1     0     0
SMALL
abcg2


@<TRIPOS>ATOM
      1 C1          -4.5860     1.5450    -0.9660 c6         1 HC9      -0.067400
      2 O1          -8.1580     0.5140    -1.2520 oh         1 HC9      -0.661000
      3 C2          -6.1030     1.6840    -0.9900 c6         1 HC9      -0.071400
      4 O2           4.4970    -1.6720     0.1120 oh         1 HC9      -0.657000
      5 C3          -6.7560     0.3380    -1.2310 c6         1 HC9       0.173300
      6 C4          -6.3220    -0.6430    -0.1460 c6         1 HC9      -0.073200
      7 C5          -4.8230    -0.7560    -0.0480 c2         1 HC9      -0.108400
      8 C6          -4.2360    -1.9520    -0.0540 c2         1 HC9      -0.216200
      9 C7          -2.7690    -2.1890     0.0850 c6         1 HC9      -0.037200
     10 C8          -1.9970    -0.9430     0.5050 c6         1 HC9      -0.043700
     11 C9          -2.5440     0.2900    -0.2260 c6         1 HC9      -0.046700
     12 C10         -4.0430     0.5430     0.0750 c6         1 HC9       0.005200
     13 C11         -1.6600     1.5190     0.0090 c6         1 HC9      -0.071400
     14 C12         -0.1710     1.2770    -0.2590 c6         1 HC9      -0.062400
     15 C13          0.3720     0.0940     0.5490 c5         1 HC9      -0.038000
     16 C14         -0.5190    -1.1090     0.1920 c5         1 HC9      -0.065700
     17 C15          0.2050    -2.3010     0.7960 c5         1 HC9      -0.074400
     18 C16          1.6930    -1.9480     0.6160 c5         1 HC9      -0.070400
     19 C17          1.7610    -0.4730     0.1280 c5         1 HC9      -0.046700
     20 C18          0.3500     0.3860     2.0540 c3         1 HC9      -0.078100
     21 C19         -4.2540     1.0990     1.4920 c3         1 HC9      -0.079100
     22 C20          3.0450     0.2690     0.5640 c3         1 HC9      -0.074700
     23 C21          2.9570     1.7770     0.3230 c3         1 HC9      -0.090100
     24 C22          4.2950    -0.2960    -0.1540 c3         1 HC9       0.165300
     25 C23          5.5830     0.4820     0.1320 c3         1 HC9      -0.107400
     26 C24          6.8150    -0.1080    -0.5470 c3         1 HC9      -0.070400
     27 C25          8.1240     0.6050    -0.2040 c3         1 HC9      -0.061700
     28 C26          9.3010    -0.1150    -0.8570 c3         1 HC9      -0.087100
     29 C27          8.1160     2.0770    -0.6060 c3         1 HC9      -0.087100
     30 H1          -4.2470     1.2300    -1.9600 hc         1 HC9       0.042200
     31 H1A         -4.1450     2.5280    -0.7890 hc         1 HC9       0.042200
     32 HO1         -8.5630    -0.3330    -1.4620 ho         1 HC9       0.441000
     33 H2          -6.4660     2.1050    -0.0460 hc         1 HC9       0.052700
     34 H2A         -6.3880     2.3870    -1.7770 hc         1 HC9       0.052700
     35 H3          -6.4050    -0.0470    -2.2010 h1         1 HC9       0.030700
     36 H4          -6.7430    -0.2990     0.8070 hc         1 HC9       0.049200
     37 H4A         -6.7520    -1.6310    -0.3380 hc         1 HC9       0.049200
     38 H6          -4.8600    -2.8360    -0.1630 ha         1 HC9       0.168000
     39 H7          -2.6000    -2.9950     0.8050 hc         1 HC9       0.047200
     40 H7A         -2.3740    -2.5680    -0.8680 hc         1 HC9       0.047200
     41 H8          -2.1240    -0.8100     1.5860 hc         1 HC9       0.053700
     42 H9          -2.4810     0.0570    -1.3000 hc         1 HC9       0.045700
     43 H11         -1.9920     2.3420    -0.6290 hc         1 HC9       0.039200
     44 H11A        -1.7800     1.8750     1.0360 hc         1 HC9       0.039200
     45 H12         -0.0200     1.0710    -1.3250 hc         1 HC9       0.039200
     46 H12A         0.3630     2.2040    -0.0490 hc         1 HC9       0.039200
     47 H14         -0.4510    -1.2140    -0.9030 hc         1 HC9       0.044700
     48 H15         -0.0550    -2.4160     1.8520 hc         1 HC9       0.040700
     49 H15A        -0.0600    -3.2410     0.3080 hc         1 HC9       0.040700
     50 H16          2.2340    -2.0640     1.5580 hc         1 HC9       0.045700
     51 H16A         2.1710    -2.6170    -0.0950 hc         1 HC9       0.045700
     52 H17          1.7590    -0.4740    -0.9720 hc         1 HC9       0.045700
     53 H18         -0.6540     0.5910     2.4260 hc         1 HC9       0.032033
     54 H18A         0.7350    -0.4500     2.6390 hc         1 HC9       0.032033
     55 H18B         0.9590     1.2560     2.3030 hc         1 HC9       0.032033
     56 H19         -5.3080     1.1150     1.7690 hc         1 HC9       0.034700
     57 H19A        -3.7400     0.4900     2.2370 hc         1 HC9       0.034700
     58 H19B        -3.8880     2.1230     1.5860 hc         1 HC9       0.034700
     59 H20          3.1850     0.1140     1.6440 hc         1 HC9       0.043700
     60 H21          2.1100     2.2160     0.8410 hc         1 HC9       0.035700
     61 H21A         3.8400     2.2990     0.6860 hc         1 HC9       0.035700
     62 H21B         2.8480     2.0060    -0.7400 hc         1 HC9       0.035700
     63 H22          4.1040    -0.2420    -1.2340 h1         1 HC9       0.068700
     64 H23          5.4630     1.5120    -0.2060 hc         1 HC9       0.041700
     65 H23A         5.7450     0.5330     1.2170 hc         1 HC9       0.041700
     66 H24          6.9180    -1.1620    -0.2770 hc         1 HC9       0.045200
     67 H24A         6.6730    -0.0850    -1.6350 hc         1 HC9       0.045200
     68 H25          8.2570     0.5510     0.8840 hc         1 HC9       0.041700
     69 H26          9.2380    -0.0570    -1.9460 hc         1 HC9       0.031700
     70 H26A        10.2540     0.3260    -0.5580 hc         1 HC9       0.031700
     71 H26B         9.3230    -1.1710    -0.5840 hc         1 HC9       0.031700
     72 H27          9.0820     2.5440    -0.4040 hc         1 HC9       0.031700
     73 H27A         7.9120     2.1860    -1.6750 hc         1 HC9       0.031700
     74 H27B         7.3620     2.6500    -0.0660 hc         1 HC9       0.031700
     75 HO2          4.6570    -1.7690     1.0570 ho         1 HC9       0.436000
@<TRIPOS>BOND
     1     1     3 1   
     2     1    12 1   
     3     1    30 1   
     4     1    31 1   
     5     2     5 1   
     6     2    32 1   
     7     3     5 1   
     8     3    33 1   
     9     3    34 1   
    10     4    24 1   
    11     4    75 1   
    12     5     6 1   
    13     5    35 1   
    14     6     7 1   
    15     6    36 1   
    16     6    37 1   
    17     7     8 2   
    18     7    12 1   
    19     8     9 1   
    20     8    38 1   
    21     9    10 1   
    22     9    39 1   
    23     9    40 1   
    24    10    11 1   
    25    10    16 1   
    26    10    41 1   
    27    11    12 1   
    28    11    13 1   
    29    11    42 1   
    30    12    21 1   
    31    13    14 1   
    32    13    43 1   
    33    13    44 1   
    34    14    15 1   
    35    14    45 1   
    36    14    46 1   
    37    15    16 1   
    38    15    19 1   
    39    15    20 1   
    40    16    17 1   
    41    16    47 1   
    42    17    18 1   
    43    17    48 1   
    44    17    49 1   
    45    18    19 1   
    46    18    50 1   
    47    18    51 1   
    48    19    22 1   
    49    19    52 1   
    50    20    53 1   
    51    20    54 1   
    52    20    55 1   
    53    21    56 1   
    54    21    57 1   
    55    21    58 1   
    56    22    23 1   
    57    22    24 1   
    58    22    59 1   
    59    23    60 1   
    60    23    61 1   
    61    23    62 1   
    62    24    25 1   
    63    24    63 1   
    64    25    26 1   
    65    25    64 1   
    66    25    65 1   
    67    26    27 1   
    68    26    66 1   
    69    26    67 1   
    70    27    28 1   
    71    27    29 1   
    72    27    68 1   
    73    28    69 1   
    74    28    70 1   
    75    28    71 1   
    76    29    72 1   
    77    29    73 1   
    78    29    74 1   
@<TRIPOS>SUBSTRUCTURE
     1 HC9         1 TEMP              0 ****  ****    0 ROOT
