@<TRIPOS>MOLECULE
HC9
   75    78     1     0     0
SMALL
No Charge or Current Charge


@<TRIPOS>ATOM
      1 C1          -4.6730     1.6520    -0.9100 c6         1 HC9      -0.067400
      2 O1          -8.2580     0.5040    -1.4450 oh         1 HC9      -0.661000
      3 C2          -6.2170     1.7510    -0.9810 c6         1 HC9      -0.071400
      4 O2           4.6400    -1.6020     0.5770 oh         1 HC9      -0.657000
      5 C3          -6.8320     0.3970    -1.3900 c6         1 HC9       0.173300
      6 C4          -6.4170    -0.7010    -0.3860 c6         1 HC9      -0.073200
      7 C5          -4.8960    -0.7950    -0.2170 c2         1 HC9      -0.108400
      8 C6          -4.2830    -1.9910    -0.2730 c2         1 HC9      -0.216200
      9 C7          -2.7910    -2.2080    -0.1000 c6         1 HC9      -0.037200
     10 C8          -2.0450    -0.9700     0.4660 c6         1 HC9      -0.043700
     11 C9          -2.5890     0.3380    -0.1970 c6         1 HC9      -0.046700
     12 C10         -4.1450     0.5310     0.0540 c6         1 HC9       0.005200
     13 C11         -1.7230     1.5830     0.2050 c6         1 HC9      -0.071400
     14 C12         -0.2000     1.3710    -0.0220 c6         1 HC9      -0.062400
     15 C13          0.3470     0.1080     0.7290 c5         1 HC9      -0.038000
     16 C14         -0.5110    -1.0990     0.2220 c5         1 HC9      -0.065700
     17 C15          0.2000    -2.3130     0.8620 c5         1 HC9      -0.074400
     18 C16          1.7070    -1.9370     0.7360 c5         1 HC9      -0.070400
     19 C17          1.7640    -0.4330     0.2560 c5         1 HC9      -0.046700
     20 C18          0.2850     0.3590     2.2770 c3         1 HC9      -0.078100
     21 C19         -4.4500     0.9200     1.5440 c3         1 HC9      -0.079100
     22 C20          3.0990     0.3210     0.6720 c3         1 HC9      -0.074700
     23 C21          3.0240     1.8550     0.4310 c3         1 HC9      -0.090100
     24 C22          4.3800    -0.3190    -0.0050 c3         1 HC9       0.165300
     25 C23          5.7000     0.5050     0.0960 c3         1 HC9      -0.107400
     26 C24          6.9480    -0.1790    -0.5300 c3         1 HC9      -0.070400
     27 C25          8.2660     0.6370    -0.4150 c3         1 HC9      -0.061700
     28 C26          9.4750    -0.1990    -0.8970 c3         1 HC9      -0.087100
     29 C27          8.2110     1.9930    -1.1610 c3         1 HC9      -0.087100
     30 H1          -4.2970     1.4700    -1.9260 hc         1 HC9       0.042200
     31 H1A         -4.2770     2.6310    -0.6120 hc         1 HC9       0.042200
     32 HO1         -8.5920    -0.3610    -1.7660 ho         1 HC9       0.441000
     33 H2          -6.6250     2.0800    -0.0160 hc         1 HC9       0.052700
     34 H2A         -6.4990     2.5200    -1.7120 hc         1 HC9       0.052700
     35 H3          -6.4420     0.1250    -2.3830 h1         1 HC9       0.030700
     36 H4          -6.8790    -0.4990     0.5900 hc         1 HC9       0.049200
     37 H4A         -6.8240    -1.6670    -0.7140 hc         1 HC9       0.049200
     38 H6          -4.8620    -2.8990    -0.4520 ha         1 HC9       0.168000
     39 H7          -2.6240    -3.0680     0.5620 hc         1 HC9       0.047200
     40 H7A         -2.3730    -2.4890    -1.0770 hc         1 HC9       0.047200
     41 H8          -2.2250    -0.9310     1.5470 hc         1 HC9       0.053700
     42 H9          -2.4530     0.2070    -1.2810 hc         1 HC9       0.045700
     43 H11         -2.0310     2.4600    -0.3780 hc         1 HC9       0.039200
     44 H11A        -1.8870     1.8510     1.2550 hc         1 HC9       0.039200
     45 H12         -0.0090     1.2720    -1.1000 hc         1 HC9       0.039200
     46 H12A         0.3100     2.2860     0.2910 hc         1 HC9       0.039200
     47 H14         -0.4230    -1.1790    -0.8700 hc         1 HC9       0.044700
     48 H15         -0.0940    -2.4530     1.9080 hc         1 HC9       0.040700
     49 H15A        -0.0320    -3.2480     0.3400 hc         1 HC9       0.040700
     50 H16          2.2060    -2.0770     1.7010 hc         1 HC9       0.045700
     51 H16A         2.2130    -2.5960     0.0220 hc         1 HC9       0.045700
     52 H17          1.7810    -0.4220    -0.8410 hc         1 HC9       0.045700
     53 H18         -0.7410     0.4570     2.6450 hc         1 HC9       0.032033
     54 H18A         0.7500    -0.4480     2.8540 hc         1 HC9       0.032033
     55 H18B         0.8110     1.2800     2.5510 hc         1 HC9       0.032033
     56 H19         -5.5250     0.9760     1.7430 hc         1 HC9       0.034700
     57 H19A        -4.0410     0.1900     2.2510 hc         1 HC9       0.034700
     58 H19B        -4.0420     1.9020     1.8040 hc         1 HC9       0.034700
     59 H20          3.2230     0.2070     1.7560 hc         1 HC9       0.043700
     60 H21          2.2670     2.3110     1.0720 hc         1 HC9       0.035700
     61 H21A         3.9500     2.3660     0.7140 hc         1 HC9       0.035700
     62 H21B         2.8010     2.0850    -0.6170 hc         1 HC9       0.035700
     63 H22          4.1620    -0.4400    -1.0760 h1         1 HC9       0.068700
     64 H23          5.5550     1.4510    -0.4340 hc         1 HC9       0.041700
     65 H23A         5.9040     0.7460     1.1470 hc         1 HC9       0.041700
     66 H24          7.1080    -1.1480    -0.0420 hc         1 HC9       0.045200
     67 H24A         6.7460    -0.3940    -1.5870 hc         1 HC9       0.045200
     68 H25          8.4310     0.8550     0.6480 hc         1 HC9       0.041700
     69 H26          9.3760    -0.4530    -1.9590 hc         1 HC9       0.031700
     70 H26A        10.4100     0.3570    -0.7620 hc         1 HC9       0.031700
     71 H26B         9.5540    -1.1330    -0.3260 hc         1 HC9       0.031700
     72 H27          9.1810     2.5030    -1.1070 hc         1 HC9       0.031700
     73 H27A         7.9610     1.8470    -2.2190 hc         1 HC9       0.031700
     74 H27B         7.4660     2.6620    -0.7180 hc         1 HC9       0.031700
     75 HO2          4.8840    -1.4430     1.5130 ho         1 HC9       0.436000
@<TRIPOS>BOND
     1     1     3 1   
     2     1    12 1   
     3     1    30 1   
     4     1    31 1   
     5     2     5 1   
     6     2    32 1   
     7     3     5 1   
     8     3    33 1   
     9     3    34 1   
    10     4    24 1   
    11     4    75 1   
    12     5     6 1   
    13     5    35 1   
    14     6     7 1   
    15     6    36 1   
    16     6    37 1   
    17     7     8 2   
    18     7    12 1   
    19     8     9 1   
    20     8    38 1   
    21     9    10 1   
    22     9    39 1   
    23     9    40 1   
    24    10    11 1   
    25    10    16 1   
    26    10    41 1   
    27    11    12 1   
    28    11    13 1   
    29    11    42 1   
    30    12    21 1   
    31    13    14 1   
    32    13    43 1   
    33    13    44 1   
    34    14    15 1   
    35    14    45 1   
    36    14    46 1   
    37    15    16 1   
    38    15    19 1   
    39    15    20 1   
    40    16    17 1   
    41    16    47 1   
    42    17    18 1   
    43    17    48 1   
    44    17    49 1   
    45    18    19 1   
    46    18    50 1   
    47    18    51 1   
    48    19    22 1   
    49    19    52 1   
    50    20    53 1   
    51    20    54 1   
    52    20    55 1   
    53    21    56 1   
    54    21    57 1   
    55    21    58 1   
    56    22    23 1   
    57    22    24 1   
    58    22    59 1   
    59    23    60 1   
    60    23    61 1   
    61    23    62 1   
    62    24    25 1   
    63    24    63 1   
    64    25    26 1   
    65    25    64 1   
    66    25    65 1   
    67    26    27 1   
    68    26    66 1   
    69    26    67 1   
    70    27    28 1   
    71    27    29 1   
    72    27    68 1   
    73    28    69 1   
    74    28    70 1   
    75    28    71 1   
    76    29    72 1   
    77    29    73 1   
    78    29    74 1   
@<TRIPOS>SUBSTRUCTURE
     1 HC9         1 TEMP              0 ****  ****    0 ROOT
