@<TRIPOS>MOLECULE
HCA
   21    20     1     0     0
SMALL
No Charge or Current Charge


@<TRIPOS>ATOM
      1 C1          95.9170   -20.2510    38.2110 c          1 HCA       0.722000
      2 C2          94.8490   -20.2100    39.3280 c3         1 HCA      -0.176400
      3 C3          93.7470   -21.3180    39.1990 c3         1 HCA       0.069000
      4 C4          93.0010   -21.2550    37.8230 c3         1 HCA      -0.040400
      5 C5          91.8300   -22.2630    37.6390 c3         1 HCA      -0.186400
      6 C6          91.2160   -22.1050    36.2350 c          1 HCA       0.708000
      7 C7          92.7070   -21.1570    40.3940 c          1 HCA       0.694000
      8 O1          95.7230   -19.5950    37.1980 o          1 HCA      -0.781000
      9 O2          96.9530   -20.8710    38.4070 o          1 HCA      -0.781000
     10 O3          91.6830   -22.7630    35.3180 o          1 HCA      -0.786500
     11 O4          90.3120   -21.2970    36.0840 o          1 HCA      -0.786500
     12 O5          92.6170   -22.0850    41.1930 o          1 HCA      -0.768500
     13 O6          92.0540   -20.1270    40.5040 o          1 HCA      -0.768500
     14 O7          94.3960   -22.6110    39.3040 oh         1 HCA      -0.698000
     15 H21         95.3210   -20.3750    40.3050 hc         1 HCA       0.007200
     16 H22         94.3080   -19.2580    39.2710 hc         1 HCA       0.007200
     17 H41         92.6110   -20.2390    37.6790 hc         1 HCA       0.045200
     18 H42         93.7220   -21.4240    37.0130 hc         1 HCA       0.045200
     19 H51         92.2630   -23.2640    37.7510 hc         1 HCA       0.017200
     20 H52         91.0860   -22.0150    38.4040 hc         1 HCA       0.017200
     21 HO7         93.9740   -23.0100    40.1040 ho         1 HCA       0.442000
@<TRIPOS>BOND
     1     1     2 1   
     2     1     8 1   
     3     1     9 1   
     4     2     3 1   
     5     2    15 1   
     6     2    16 1   
     7     3     4 1   
     8     3     7 1   
     9     3    14 1   
    10     4     5 1   
    11     4    17 1   
    12     4    18 1   
    13     5     6 1   
    14     5    19 1   
    15     5    20 1   
    16     6    10 1   
    17     6    11 1   
    18     7    12 1   
    19     7    13 1   
    20    14    21 1   
@<TRIPOS>SUBSTRUCTURE
     1 HCA         1 TEMP              0 ****  ****    0 ROOT
