@<TRIPOS>MOLECULE
HCA
   21    20     1     0     0
SMALL
abcg2


@<TRIPOS>ATOM
      1 C1          96.0540   -20.4600    38.3080 c          1 HCA       0.722000
      2 C2          94.8680   -20.2460    39.2660 c3         1 HCA      -0.176400
      3 C3          93.7460   -21.2980    39.1310 c3         1 HCA       0.069000
      4 C4          92.9840   -21.1590    37.8080 c3         1 HCA      -0.040400
      5 C5          91.7990   -22.1020    37.6570 c3         1 HCA      -0.186400
      6 C6          91.1350   -22.1180    36.2650 c          1 HCA       0.708000
      7 C7          92.7710   -21.1170    40.3280 c          1 HCA       0.694000
      8 O1          95.9000   -20.0900    37.1220 o          1 HCA      -0.781000
      9 O2          97.0850   -20.9790    38.7850 o          1 HCA      -0.781000
     10 O3          91.8100   -21.7290    35.2890 o          1 HCA      -0.786500
     11 O4          89.9640   -22.5550    36.2230 o          1 HCA      -0.786500
     12 O5          92.7090   -22.0990    41.1090 o          1 HCA      -0.768500
     13 O6          92.1530   -20.0450    40.4310 o          1 HCA      -0.768500
     14 O7          94.2970   -22.5970    39.2280 oh         1 HCA      -0.698000
     15 H21         95.2340   -20.2670    40.2980 hc         1 HCA       0.007200
     16 H22         94.4330   -19.2570    39.1000 hc         1 HCA       0.007200
     17 H41         92.6390   -20.1250    37.7100 hc         1 HCA       0.045200
     18 H42         93.6810   -21.3180    36.9860 hc         1 HCA       0.045200
     19 H51         92.1220   -23.1280    37.8740 hc         1 HCA       0.017200
     20 H52         91.0310   -21.8770    38.4020 hc         1 HCA       0.017200
     21 HO7         93.8740   -22.9250    40.0460 ho         1 HCA       0.442000
@<TRIPOS>BOND
     1     1     2 1   
     2     1     8 1   
     3     1     9 1   
     4     2     3 1   
     5     2    15 1   
     6     2    16 1   
     7     3     4 1   
     8     3     7 1   
     9     3    14 1   
    10     4     5 1   
    11     4    17 1   
    12     4    18 1   
    13     5     6 1   
    14     5    19 1   
    15     5    20 1   
    16     6    10 1   
    17     6    11 1   
    18     7    12 1   
    19     7    13 1   
    20    14    21 1   
@<TRIPOS>SUBSTRUCTURE
     1 HCA         1 TEMP              0 ****  ****    0 ROOT
