@<TRIPOS>MOLECULE
HCC
   31    32     1     0     0
SMALL
No Charge or Current Charge


@<TRIPOS>ATOM
      1 C1          -1.2080     0.1480    -4.7560 ca         1 HCC       0.216100
      2 C2          -1.8650    -0.1480    -3.5590 ca         1 HCC      -0.275000
      3 C3          -1.1450    -0.2180    -2.3550 ca         1 HCC       0.025000
      4 C4           0.2510     0.0170    -2.3380 ca         1 HCC      -0.330600
      5 C5           0.8950     0.2930    -3.5650 ca         1 HCC       0.262100
      6 C6           0.1700     0.3640    -4.7590 ca         1 HCC      -0.231000
      7 C7           1.0450    -0.0440    -1.0500 c          1 HCC       0.613900
      8 C8           0.3620     0.0400     0.2770 ce         1 HCC      -0.317200
      9 C9           0.9990    -0.0800     1.4800 cf         1 HCC      -0.050200
     10 O10          2.2360     0.4970    -3.6150 oh         1 HCC      -0.549100
     11 C11          0.4410    -0.0010     2.8480 ca         1 HCC      -0.126800
     12 C12          1.3050    -0.1480     3.9540 ca         1 HCC      -0.039500
     13 C13          0.8030    -0.0770     5.2650 ca         1 HCC      -0.185500
     14 C14         -0.5620     0.1400     5.4860 ca         1 HCC       0.162100
     15 C15         -1.4320     0.2880     4.3950 ca         1 HCC      -0.185500
     16 C16         -0.9350     0.2180     3.0810 ca         1 HCC      -0.039500
     17 O17          2.2640    -0.1630    -1.0980 o          1 HCC      -0.601100
     18 O18         -1.0370     0.2070     6.7610 oh         1 HCC      -0.527100
     19 O19         -1.9070     0.2160    -5.9200 oh         1 HCC      -0.523100
     20 H2          -2.9370    -0.3320    -3.5500 ha         1 HCC       0.118000
     21 H3          -1.6920    -0.4780    -1.4530 ha         1 HCC       0.110000
     22 H6           0.6810     0.5850    -5.6910 ha         1 HCC       0.148000
     23 H8          -0.7030     0.2350     0.2660 ha         1 HCC       0.183000
     24 H9           2.0770    -0.2630     1.4550 ha         1 HCC       0.194000
     25 H10          2.5620     0.2910    -2.7000 ho         1 HCC       0.525000
     26 H12          2.3690    -0.3170     3.8010 ha         1 HCC       0.116500
     27 H13          1.4780    -0.1920     6.1100 ha         1 HCC       0.125000
     28 H15         -2.4940     0.4570     4.5560 ha         1 HCC       0.125000
     29 H16         -1.6290     0.3350     2.2550 ha         1 HCC       0.116500
     30 H18         -2.0050     0.3630     6.7220 ho         1 HCC       0.470000
     31 H19         -2.8480     0.0350    -5.7180 ho         1 HCC       0.471000
@<TRIPOS>BOND
     1     1     2 ar  
     2     1     6 ar  
     3     1    19 1   
     4     2     3 ar  
     5     2    20 1   
     6     3     4 ar  
     7     3    21 1   
     8     4     5 ar  
     9     4     7 1   
    10     5     6 ar  
    11     5    10 1   
    12     6    22 1   
    13     7     8 1   
    14     7    17 2   
    15     8     9 2   
    16     8    23 1   
    17     9    11 1   
    18     9    24 1   
    19    10    25 1   
    20    11    12 ar  
    21    11    16 ar  
    22    12    13 ar  
    23    12    26 1   
    24    13    14 ar  
    25    13    27 1   
    26    14    15 ar  
    27    14    18 1   
    28    15    16 ar  
    29    15    28 1   
    30    16    29 1   
    31    18    30 1   
    32    19    31 1   
@<TRIPOS>SUBSTRUCTURE
     1 HCC         1 TEMP              0 ****  ****    0 ROOT
