@<TRIPOS>MOLECULE
HCC
   31    32     1     0     0
SMALL
abcg2


@<TRIPOS>ATOM
      1 C1          -1.1660     0.1140    -4.7050 ca         1 HCC       0.216100
      2 C2          -1.8810     0.1100    -3.4980 ca         1 HCC      -0.275000
      3 C3          -1.1890     0.0920    -2.3110 ca         1 HCC       0.025000
      4 C4           0.2120     0.0780    -2.2580 ca         1 HCC      -0.330600
      5 C5           0.9130     0.0830    -3.4930 ca         1 HCC       0.262100
      6 C6           0.2190     0.1020    -4.6980 ca         1 HCC      -0.231000
      7 C7           0.9700     0.0600    -1.0070 c          1 HCC       0.613900
      8 C8           0.2700     0.0630     0.2780 ce         1 HCC      -0.317200
      9 C9           0.9550     0.0500     1.4350 cf         1 HCC      -0.050200
     10 O10          2.2390     0.0690    -3.5420 oh         1 HCC      -0.549100
     11 C11          0.4080     0.0510     2.7770 ca         1 HCC      -0.126800
     12 C12          1.2900     0.0320     3.8640 ca         1 HCC      -0.039500
     13 C13          0.8370     0.0330     5.1690 ca         1 HCC      -0.185500
     14 C14         -0.5340     0.0540     5.4230 ca         1 HCC       0.162100
     15 C15         -1.4320     0.0730     4.3520 ca         1 HCC      -0.185500
     16 C16         -0.9640     0.0720     3.0550 ca         1 HCC      -0.039500
     17 O17          2.2120     0.0450    -1.0410 o          1 HCC      -0.601100
     18 O18         -0.9370     0.0550     6.7010 oh         1 HCC      -0.527100
     19 O19         -1.7800     0.1310    -5.8930 oh         1 HCC      -0.523100
     20 H2          -2.9630     0.1190    -3.4990 ha         1 HCC       0.118000
     21 H3          -1.7690     0.0890    -1.4000 ha         1 HCC       0.110000
     22 H6           0.7710     0.1050    -5.6300 ha         1 HCC       0.148000
     23 H8          -0.8110     0.0790     0.2870 ha         1 HCC       0.183000
     24 H9           2.0400     0.0350     1.3820 ha         1 HCC       0.194000
     25 H10          2.5540     0.0540    -2.6000 ho         1 HCC       0.525000
     26 H12          2.3580     0.0170     3.6820 ha         1 HCC       0.116500
     27 H13          1.5390     0.0170     5.9930 ha         1 HCC       0.125000
     28 H15         -2.5000     0.0900     4.5370 ha         1 HCC       0.125000
     29 H16         -1.6860     0.0870     2.2490 ha         1 HCC       0.116500
     30 H18         -1.9000     0.0690     6.7580 ho         1 HCC       0.470000
     31 H19         -2.7380     0.1390    -5.7820 ho         1 HCC       0.471000
@<TRIPOS>BOND
     1     1     2 ar  
     2     1     6 ar  
     3     1    19 1   
     4     2     3 ar  
     5     2    20 1   
     6     3     4 ar  
     7     3    21 1   
     8     4     5 ar  
     9     4     7 1   
    10     5     6 ar  
    11     5    10 1   
    12     6    22 1   
    13     7     8 1   
    14     7    17 2   
    15     8     9 2   
    16     8    23 1   
    17     9    11 1   
    18     9    24 1   
    19    10    25 1   
    20    11    12 ar  
    21    11    16 ar  
    22    12    13 ar  
    23    12    26 1   
    24    13    14 ar  
    25    13    27 1   
    26    14    15 ar  
    27    14    18 1   
    28    15    16 ar  
    29    15    28 1   
    30    16    29 1   
    31    18    30 1   
    32    19    31 1   
@<TRIPOS>SUBSTRUCTURE
     1 HCC         1 TEMP              0 ****  ****    0 ROOT
