@<TRIPOS>MOLECULE
HCD
   75    78     1     0     0
SMALL
abcg2


@<TRIPOS>ATOM
      1 C1          -4.6470     1.3480    -1.0620 c6         1 HCD      -0.067400
      2 O1          -8.1470     0.0630    -1.1910 oh         1 HCD      -0.660000
      3 C2          -6.1710     1.3810    -1.0570 c6         1 HCD      -0.072400
      4 O2           3.3780     0.7350     1.7400 oh         1 HCD      -0.658000
      5 C3          -6.7360    -0.0170    -1.2020 c6         1 HCD       0.173300
      6 C4          -6.2060    -0.9050    -0.0790 c6         1 HCD      -0.074200
      7 C5          -4.7010    -0.9080    -0.0220 c2         1 HCD      -0.106400
      8 C6          -4.0300    -2.0580    -0.0040 c2         1 HCD      -0.217200
      9 C7          -2.5470    -2.1830     0.1010 c6         1 HCD      -0.037200
     10 C8          -1.8640    -0.8730     0.4770 c6         1 HCD      -0.042700
     11 C9          -2.5050     0.2960    -0.2820 c6         1 HCD      -0.045700
     12 C10         -4.0180     0.4490     0.0240 c6         1 HCD       0.004200
     13 C11         -1.7120     1.5950    -0.0910 c6         1 HCD      -0.071400
     14 C12         -0.2120     1.4600    -0.3660 c6         1 HCD      -0.062400
     15 C13          0.4190     0.3400     0.4650 c5         1 HCD      -0.029000
     16 C14         -0.3820    -0.9370     0.1480 c5         1 HCD      -0.067700
     17 C15          0.4420    -2.0570     0.7660 c5         1 HCD      -0.072400
     18 C16          1.8950    -1.6040     0.5360 c5         1 HCD      -0.076400
     19 C17          1.8300    -0.1350     0.0270 c5         1 HCD      -0.081700
     20 C18          0.3680     0.6780     1.9580 c3         1 HCD      -0.074100
     21 C19         -4.2610     1.0660     1.4100 c3         1 HCD      -0.079100
     22 C20          3.1020     0.6880     0.3480 c3         1 HCD       0.202000
     23 C21          2.9550     2.1410    -0.0870 c3         1 HCD      -0.080100
     24 C22          4.2840     0.0370    -0.4030 c3         1 HCD      -0.110400
     25 C23          5.6750     0.5580    -0.0550 c3         1 HCD      -0.070400
     26 C24          6.7560    -0.2000    -0.8180 c3         1 HCD      -0.074400
     27 C25          8.1940     0.2170    -0.5010 c3         1 HCD      -0.059700
     28 C26          8.5540    -0.0300     0.9610 c3         1 HCD      -0.087600
     29 C27          9.1660    -0.5230    -1.4150 c3         1 HCD      -0.087600
     30 H1          -4.3050     0.9990    -2.0430 hc         1 HCD       0.042200
     31 H1A         -4.2750     2.3680    -0.9520 hc         1 HCD       0.042200
     32 HO1         -8.4980    -0.8200    -1.3420 ho         1 HCD       0.441000
     33 H2          -6.5430     1.8320    -0.1310 hc         1 HCD       0.052700
     34 H2A         -6.5210     2.0140    -1.8770 hc         1 HCD       0.052700
     35 HO2          3.5760    -0.1570     2.0430 ho         1 HCD       0.439000
     36 H3          -6.3850    -0.4330    -2.1600 h1         1 HCD       0.029700
     37 H4          -6.6230    -0.5400     0.8680 hc         1 HCD       0.049700
     38 H4A         -6.5690    -1.9300    -0.2040 hc         1 HCD       0.049700
     39 H6          -4.5920    -2.9870    -0.0620 ha         1 HCD       0.168000
     40 H7          -2.3010    -2.9590     0.8330 hc         1 HCD       0.046200
     41 H7A         -2.1460    -2.5510    -0.8540 hc         1 HCD       0.046200
     42 H8          -1.9880    -0.7190     1.5560 hc         1 HCD       0.056700
     43 H9          -2.4350     0.0350    -1.3490 hc         1 HCD       0.044700
     44 H11         -2.1140     2.3730    -0.7450 hc         1 HCD       0.040700
     45 H11A        -1.8490     1.9680     0.9270 hc         1 HCD       0.040700
     46 H12         -0.0510     1.2440    -1.4300 hc         1 HCD       0.039200
     47 H12A         0.2570     2.4250    -0.1730 hc         1 HCD       0.039200
     48 H14         -0.3210    -1.0640    -0.9450 hc         1 HCD       0.041700
     49 H15          0.2190    -2.1580     1.8320 hc         1 HCD       0.043200
     50 H15A         0.2340    -3.0270     0.3120 hc         1 HCD       0.043200
     51 H16          2.4700    -1.6940     1.4620 hc         1 HCD       0.037200
     52 H16A         2.3950    -2.2440    -0.1900 hc         1 HCD       0.037200
     53 H17          1.7920    -0.1780    -1.0700 hc         1 HCD       0.046700
     54 H18         -0.6580     0.7710     2.3160 hc         1 HCD       0.035367
     55 H18A         0.8490    -0.0830     2.5720 hc         1 HCD       0.035367
     56 H18B         0.8670     1.6230     2.1700 hc         1 HCD       0.035367
     57 H19         -5.3180     1.0470     1.6810 hc         1 HCD       0.035367
     58 H19A        -3.7240     0.5210     2.1880 hc         1 HCD       0.035367
     59 H19B        -3.9450     2.1080     1.4510 hc         1 HCD       0.035367
     60 H21          3.8960     2.6830     0.0140 hc         1 HCD       0.042367
     61 H21A         2.6460     2.2040    -1.1310 hc         1 HCD       0.042367
     62 H21B         2.2140     2.6690     0.5130 hc         1 HCD       0.042367
     63 H22          4.2820    -1.0420    -0.2090 hc         1 HCD       0.040200
     64 H22A         4.1150     0.1410    -1.4800 hc         1 HCD       0.040200
     65 H23          5.7610     1.6270    -0.2780 hc         1 HCD       0.045700
     66 H23A         5.8380     0.4550     1.0200 hc         1 HCD       0.045700
     67 H24          6.6520    -1.2740    -0.6190 hc         1 HCD       0.035200
     68 H24A         6.5850    -0.0760    -1.8940 hc         1 HCD       0.035200
     69 H25          8.2890     1.2910    -0.7010 hc         1 HCD       0.045700
     70 H26          8.4210    -1.0840     1.2190 hc         1 HCD       0.032033
     71 H26A         9.5950     0.2290     1.1580 hc         1 HCD       0.032033
     72 H26B         7.9390     0.5560     1.6450 hc         1 HCD       0.032033
     73 H27          8.9600    -0.3210    -2.4680 hc         1 HCD       0.032033
     74 H27A        10.2000    -0.2340    -1.2190 hc         1 HCD       0.032033
     75 H27B         9.0910    -1.6040    -1.2660 hc         1 HCD       0.032033
@<TRIPOS>BOND
     1     1     3 1   
     2     1    12 1   
     3     1    30 1   
     4     1    31 1   
     5     2     5 1   
     6     2    32 1   
     7     3     5 1   
     8     3    33 1   
     9     3    34 1   
    10     4    22 1   
    11     4    35 1   
    12     5     6 1   
    13     5    36 1   
    14     6     7 1   
    15     6    37 1   
    16     6    38 1   
    17     7     8 2   
    18     7    12 1   
    19     8     9 1   
    20     8    39 1   
    21     9    10 1   
    22     9    40 1   
    23     9    41 1   
    24    10    11 1   
    25    10    16 1   
    26    10    42 1   
    27    11    12 1   
    28    11    13 1   
    29    11    43 1   
    30    12    21 1   
    31    13    14 1   
    32    13    44 1   
    33    13    45 1   
    34    14    15 1   
    35    14    46 1   
    36    14    47 1   
    37    15    16 1   
    38    15    19 1   
    39    15    20 1   
    40    16    17 1   
    41    16    48 1   
    42    17    18 1   
    43    17    49 1   
    44    17    50 1   
    45    18    19 1   
    46    18    51 1   
    47    18    52 1   
    48    19    22 1   
    49    19    53 1   
    50    20    54 1   
    51    20    55 1   
    52    20    56 1   
    53    21    57 1   
    54    21    58 1   
    55    21    59 1   
    56    22    23 1   
    57    22    24 1   
    58    23    60 1   
    59    23    61 1   
    60    23    62 1   
    61    24    25 1   
    62    24    63 1   
    63    24    64 1   
    64    25    26 1   
    65    25    65 1   
    66    25    66 1   
    67    26    27 1   
    68    26    67 1   
    69    26    68 1   
    70    27    28 1   
    71    27    29 1   
    72    27    69 1   
    73    28    70 1   
    74    28    71 1   
    75    28    72 1   
    76    29    73 1   
    77    29    74 1   
    78    29    75 1   
@<TRIPOS>SUBSTRUCTURE
     1 HCD         1 TEMP              0 ****  ****    0 ROOT
