@<TRIPOS>MOLECULE
HCD
   75    78     1     0     0
SMALL
No Charge or Current Charge


@<TRIPOS>ATOM
      1 C1          -4.7010     1.4990    -0.9870 c6         1 HCD      -0.067400
      2 O1          -8.2460     0.1740    -1.3530 oh         1 HCD      -0.660000
      3 C2          -6.2490     1.5290    -1.0180 c6         1 HCD      -0.072400
      4 O2           3.4290     0.6180     1.7530 oh         1 HCD      -0.658000
      5 C3          -6.8150     0.1300    -1.3330 c6         1 HCD       0.173300
      6 C4          -6.3270    -0.8890    -0.2800 c6         1 HCD      -0.074200
      7 C5          -4.8000    -0.9110    -0.1500 c2         1 HCD      -0.106400
      8 C6          -4.1370    -2.0820    -0.1550 c2         1 HCD      -0.217200
      9 C7          -2.6330    -2.2260    -0.0130 c6         1 HCD      -0.037200
     10 C8          -1.9270    -0.9280     0.4600 c6         1 HCD      -0.042700
     11 C9          -2.5440     0.3170    -0.2600 c6         1 HCD      -0.045700
     12 C10         -4.0990     0.4590     0.0240 c6         1 HCD       0.004200
     13 C11         -1.7230     1.6210     0.0430 c6         1 HCD      -0.071400
     14 C12         -0.1970     1.4600    -0.2100 c6         1 HCD      -0.062400
     15 C13          0.4190     0.2640     0.5890 c5         1 HCD      -0.029000
     16 C14         -0.3960    -1.0080     0.1780 c5         1 HCD      -0.067700
     17 C15          0.3900    -2.1530     0.8620 c5         1 HCD      -0.072400
     18 C16          1.8780    -1.7260     0.6590 c5         1 HCD      -0.076400
     19 C17          1.8410    -0.2490     0.0950 c5         1 HCD      -0.081700
     20 C18          0.3740     0.6020     2.1210 c3         1 HCD      -0.074100
     21 C19         -4.3820     0.9200     1.4970 c3         1 HCD      -0.079100
     22 C20          3.1630     0.5850     0.3500 c3         1 HCD       0.202000
     23 C21          3.0530     2.0560    -0.1260 c3         1 HCD      -0.080100
     24 C22          4.3740    -0.1300    -0.3410 c3         1 HCD      -0.110400
     25 C23          5.7840     0.4960    -0.1500 c3         1 HCD      -0.070400
     26 C24          6.9090    -0.3840    -0.7480 c3         1 HCD      -0.074400
     27 C25          8.3290     0.2450    -0.6940 c3         1 HCD      -0.059700
     28 C26          8.8180     0.5100     0.7510 c3         1 HCD      -0.087600
     29 C27          9.3480    -0.6250    -1.4640 c3         1 HCD      -0.087600
     30 H1          -4.3440     1.2750    -2.0010 hc         1 HCD       0.042200
     31 H1A         -4.3400     2.5100    -0.7560 hc         1 HCD       0.042200
     32 HO1         -8.5500    -0.7210    -1.6160 ho         1 HCD       0.441000
     33 H2          -6.6450     1.8960    -0.0620 hc         1 HCD       0.052700
     34 H2A         -6.5830     2.2430    -1.7840 hc         1 HCD       0.052700
     35 HO2          2.5740     0.4300     2.1890 ho         1 HCD       0.439000
     36 H3          -6.4400    -0.1830    -2.3190 h1         1 HCD       0.029700
     37 H4          -6.7720    -0.6520     0.6950 hc         1 HCD       0.049700
     38 H4A         -6.7000    -1.8890    -0.5410 hc         1 HCD       0.049700
     39 H6          -4.6820    -3.0210    -0.2650 ha         1 HCD       0.168000
     40 H7          -2.4130    -3.0390     0.6930 hc         1 HCD       0.046200
     41 H7A         -2.2310    -2.5460    -0.9840 hc         1 HCD       0.046200
     42 H8          -2.0800    -0.8350     1.5430 hc         1 HCD       0.056700
     43 H9          -2.4310     0.1280    -1.3380 hc         1 HCD       0.044700
     44 H11         -2.0830     2.4450    -0.5850 hc         1 HCD       0.040700
     45 H11A        -1.8760     1.9480     1.0770 hc         1 HCD       0.040700
     46 H12         -0.0280     1.3190    -1.2870 hc         1 HCD       0.039200
     47 H12A         0.2860     2.4070     0.0520 hc         1 HCD       0.039200
     48 H14         -0.3390    -1.1470    -0.9100 hc         1 HCD       0.041700
     49 H15          0.1380    -2.2440     1.9240 hc         1 HCD       0.043200
     50 H15A         0.1800    -3.1260     0.4040 hc         1 HCD       0.043200
     51 H16          2.4230    -1.8060     1.6060 hc         1 HCD       0.037200
     52 H16A         2.3830    -2.3990    -0.0430 hc         1 HCD       0.037200
     53 H17          1.7980    -0.3160    -1.0000 hc         1 HCD       0.046700
     54 H18         -0.6490     0.6920     2.5000 hc         1 HCD       0.035367
     55 H18A         0.8660    -0.1580     2.7380 hc         1 HCD       0.035367
     56 H18B         0.8710     1.5570     2.3270 hc         1 HCD       0.035367
     57 H19         -5.4530     0.9420     1.7240 hc         1 HCD       0.035367
     58 H19A        -3.9230     0.2510     2.2330 hc         1 HCD       0.035367
     59 H19B        -4.0120     1.9330     1.6900 hc         1 HCD       0.035367
     60 H21          4.0100     2.5830    -0.0570 hc         1 HCD       0.042367
     61 H21A         2.7090     2.1080    -1.1660 hc         1 HCD       0.042367
     62 H21B         2.3630     2.6220     0.5060 hc         1 HCD       0.042367
     63 H22          4.4250    -1.1620     0.0230 hc         1 HCD       0.040200
     64 H22A         4.1680    -0.1990    -1.4160 hc         1 HCD       0.040200
     65 H23          5.8260     1.4790    -0.6320 hc         1 HCD       0.045700
     66 H23A         5.9690     0.6470     0.9190 hc         1 HCD       0.045700
     67 H24          6.9230    -1.3510    -0.2300 hc         1 HCD       0.035200
     68 H24A         6.6610    -0.5940    -1.7960 hc         1 HCD       0.035200
     69 H25          8.2830     1.2150    -1.2070 hc         1 HCD       0.045700
     70 H26          8.8150    -0.4150     1.3400 hc         1 HCD       0.032033
     71 H26A         9.8400     0.9080     0.7460 hc         1 HCD       0.032033
     72 H26B         8.1820     1.2460     1.2570 hc         1 HCD       0.032033
     73 H27          9.0320    -0.7640    -2.5050 hc         1 HCD       0.032033
     74 H27A        10.3360    -0.1510    -1.4720 hc         1 HCD       0.032033
     75 H27B         9.4450    -1.6150    -1.0000 hc         1 HCD       0.032033
@<TRIPOS>BOND
     1     1     3 1   
     2     1    12 1   
     3     1    30 1   
     4     1    31 1   
     5     2     5 1   
     6     2    32 1   
     7     3     5 1   
     8     3    33 1   
     9     3    34 1   
    10     4    22 1   
    11     4    35 1   
    12     5     6 1   
    13     5    36 1   
    14     6     7 1   
    15     6    37 1   
    16     6    38 1   
    17     7     8 2   
    18     7    12 1   
    19     8     9 1   
    20     8    39 1   
    21     9    10 1   
    22     9    40 1   
    23     9    41 1   
    24    10    11 1   
    25    10    16 1   
    26    10    42 1   
    27    11    12 1   
    28    11    13 1   
    29    11    43 1   
    30    12    21 1   
    31    13    14 1   
    32    13    44 1   
    33    13    45 1   
    34    14    15 1   
    35    14    46 1   
    36    14    47 1   
    37    15    16 1   
    38    15    19 1   
    39    15    20 1   
    40    16    17 1   
    41    16    48 1   
    42    17    18 1   
    43    17    49 1   
    44    17    50 1   
    45    18    19 1   
    46    18    51 1   
    47    18    52 1   
    48    19    22 1   
    49    19    53 1   
    50    20    54 1   
    51    20    55 1   
    52    20    56 1   
    53    21    57 1   
    54    21    58 1   
    55    21    59 1   
    56    22    23 1   
    57    22    24 1   
    58    23    60 1   
    59    23    61 1   
    60    23    62 1   
    61    24    25 1   
    62    24    63 1   
    63    24    64 1   
    64    25    26 1   
    65    25    65 1   
    66    25    66 1   
    67    26    27 1   
    68    26    67 1   
    69    26    68 1   
    70    27    28 1   
    71    27    29 1   
    72    27    69 1   
    73    28    70 1   
    74    28    71 1   
    75    28    72 1   
    76    29    73 1   
    77    29    74 1   
    78    29    75 1   
@<TRIPOS>SUBSTRUCTURE
     1 HCD         1 TEMP              0 ****  ****    0 ROOT
