@<TRIPOS>MOLECULE
HCE
   49    51     1     0     0
SMALL
No Charge or Current Charge


@<TRIPOS>ATOM
      1 O           -8.2860    -2.0170     1.1280 o          1 HCE      -0.727500
      2 C           -8.1220    -1.3780     0.0950 c          1 HCE       0.726000
      3 OXT         -8.7030    -1.6400    -0.9510 o          1 HCE      -0.727500
      4 CA          -7.1750    -0.1050     0.1320 c3         1 HCE       0.022500
      5 N           -7.5700     0.9950     1.0870 n8         1 HCE      -0.985200
      6 CB          -5.7010    -0.5250     0.3720 c3         1 HCE      -0.097400
      7 CG          -4.6670     0.5800     0.0690 c3         1 HCE       0.080600
      8 S5          -2.9500    -0.0650     0.2960 ss         1 HCE      -0.467000
      9 C5          -1.9830     1.4460    -0.1570 c3         1 HCE       0.064600
     10 C4          -0.4590     1.2190    -0.0700 c5         1 HCE      -0.052700
     11 C1           0.1060     0.1660    -1.0530 c5         1 HCE       0.161800
     12 C3           0.3950     2.4640    -0.4570 c5         1 HCE       0.167300
     13 O3           0.5470     3.3690     0.6430 oh         1 HCE      -0.642000
     14 C2           1.7520     1.8300    -0.9390 c5         1 HCE       0.123800
     15 N1           1.5500     0.3610    -0.8160 n3         1 HCE      -0.693600
     16 C10          2.4580    -0.4880    -1.6120 c3         1 HCE       0.251000
     17 C9           3.9040    -0.2760    -1.2520 cc         1 HCE      -0.250000
     18 C8           4.8500     0.4910    -1.9330 cd         1 HCE      -0.152100
     19 N7           6.0960     0.4260    -1.2600 na         1 HCE      -0.207700
     20 C7           5.8810    -0.3980    -0.1620 ca         1 HCE      -0.222200
     21 C11          4.5880    -0.8330    -0.1220 ca         1 HCE       0.142800
     22 N3           4.1020    -1.6430     0.8370 nb         1 HCE      -0.136000
     23 C12          5.0090    -1.9990     1.7800 ca         1 HCE       0.131900
     24 N2           6.3150    -1.6270     1.8370 nb         1 HCE      -0.274000
     25 C6           6.7520    -0.8180     0.8540 ca         1 HCE       0.381900
     26 N6           8.0620    -0.4560     0.9120 nv         1 HCE      -1.073900
     27 H2          -7.2190     0.3290    -0.8770 h1         1 HCE       0.041700
     28 H3          -7.6120     0.6080     2.0380 hn         1 HCE       0.374000
     29 H4          -6.8230     1.6960     1.1340 hn         1 HCE       0.374000
     30 H6          -5.5770    -0.8710     1.4060 hc         1 HCE       0.059700
     31 H7          -5.4780    -1.3850    -0.2720 hc         1 HCE       0.059700
     32 H8          -4.7840     0.9240    -0.9680 h1         1 HCE       0.044200
     33 H9          -4.8160     1.4360     0.7400 h1         1 HCE       0.044200
     34 H10         -2.2500     1.7460    -1.1790 h1         1 HCE       0.052200
     35 H11         -2.2640     2.2610     0.5230 h1         1 HCE       0.052200
     36 H12         -0.2430     0.9150     0.9600 hc         1 HCE       0.095700
     37 H13         -0.2240    -0.8520    -0.8040 h1         1 HCE       0.049200
     38 H14         -0.1770     0.3800    -2.0950 h1         1 HCE       0.049200
     39 H15         -0.0720     2.9880    -1.3030 h1         1 HCE       0.027700
     40 H16          1.1360     4.0930     0.3360 ho         1 HCE       0.431000
     41 H17          1.9470     2.1150    -1.9820 h1         1 HCE       0.031700
     42 H18          2.6070     2.1640    -0.3360 h1         1 HCE       0.031700
     43 H20          2.2110    -1.5470    -1.4530 h1         1 HCE       0.038700
     44 H21          2.3250    -0.2830    -2.6830 h1         1 HCE       0.038700
     45 H22          4.7250     1.0780    -2.8410 h4         1 HCE       0.213000
     46 H23          6.9570     0.8990    -1.5220 hn         1 HCE       0.346000
     47 H24          4.6530    -2.6540     2.5740 h5         1 HCE       0.045100
     48 H25          8.6650    -0.9510     1.5650 hn         1 HCE       0.478000
     49 H26          8.5080    -0.0810     0.0790 hn         1 HCE       0.478000
@<TRIPOS>BOND
     1     1     2 1   
     2     2     3 1   
     3     2     4 1   
     4     4     5 1   
     5     4     6 1   
     6     4    27 1   
     7     5    28 1   
     8     5    29 1   
     9     6     7 1   
    10     6    30 1   
    11     6    31 1   
    12     7     8 1   
    13     7    32 1   
    14     7    33 1   
    15     8     9 1   
    16     9    10 1   
    17     9    34 1   
    18     9    35 1   
    19    10    11 1   
    20    10    12 1   
    21    10    36 1   
    22    11    15 1   
    23    11    37 1   
    24    11    38 1   
    25    12    13 1   
    26    12    14 1   
    27    12    39 1   
    28    13    40 1   
    29    14    15 1   
    30    14    41 1   
    31    14    42 1   
    32    15    16 1   
    33    16    17 1   
    34    16    43 1   
    35    16    44 1   
    36    17    18 2   
    37    17    21 1   
    38    18    19 1   
    39    18    45 1   
    40    19    20 1   
    41    19    46 1   
    42    20    21 ar  
    43    20    25 ar  
    44    21    22 ar  
    45    22    23 ar  
    46    23    24 ar  
    47    23    47 1   
    48    24    25 ar  
    49    25    26 1   
    50    26    48 1   
    51    26    49 1   
@<TRIPOS>SUBSTRUCTURE
     1 HCE         1 TEMP              0 ****  ****    0 ROOT
