@<TRIPOS>MOLECULE
HCE
   49    51     1     0     0
SMALL
abcg2


@<TRIPOS>ATOM
      1 O           -8.8780    -1.1290     0.6040 o          1 HCE      -0.727500
      2 C           -8.1190    -1.0110    -0.3780 c          1 HCE       0.726000
      3 OXT         -8.0490    -1.7770    -1.3590 o          1 HCE      -0.727500
      4 CA          -7.1220     0.1700    -0.3670 c3         1 HCE       0.022500
      5 N           -7.5910     1.2370     0.4990 n8         1 HCE      -0.985200
      6 CB          -5.7320    -0.3950    -0.0090 c3         1 HCE      -0.097400
      7 CG          -4.6220     0.6420    -0.1000 c3         1 HCE       0.080600
      8 S5          -3.0370    -0.1080     0.3720 ss         1 HCE      -0.467000
      9 C5          -1.9240     1.2980     0.0870 c3         1 HCE       0.064600
     10 C4          -0.5090     0.9350     0.5010 c5         1 HCE      -0.052700
     11 C1           0.0910    -0.2310    -0.2910 c5         1 HCE       0.161800
     12 C3           0.4880     2.0950     0.2790 c5         1 HCE       0.167300
     13 O3           0.9720     2.5160     1.5360 oh         1 HCE      -0.642000
     14 C2           1.5660     1.4800    -0.6160 c5         1 HCE       0.123800
     15 N1           1.5090     0.0660    -0.3060 n3         1 HCE      -0.693600
     16 C10          2.2650    -0.7840    -1.2020 c3         1 HCE       0.251000
     17 C9           3.7230    -0.4790    -1.1680 cc         1 HCE      -0.250000
     18 C8           4.4610     0.1200    -2.1590 cd         1 HCE      -0.152100
     19 N7           5.7520     0.2750    -1.7640 na         1 HCE      -0.207700
     20 C7           5.8790    -0.2190    -0.4970 ca         1 HCE      -0.222200
     21 C11          4.6290    -0.6990    -0.0910 ca         1 HCE       0.142800
     22 N3           4.4320    -1.2700     1.1170 nb         1 HCE      -0.136000
     23 C12          5.5100    -1.3180     1.8640 ca         1 HCE       0.131900
     24 N2           6.7410    -0.8730     1.5750 nb         1 HCE      -0.274000
     25 C6           6.9640    -0.3140     0.3900 ca         1 HCE       0.381900
     26 N6           8.1910     0.1650     0.1150 nv         1 HCE      -1.073900
     27 H2          -7.0630     0.5660    -1.3870 h1         1 HCE       0.041700
     28 H3          -7.7560     0.8620     1.4240 hn         1 HCE       0.374000
     29 H4          -6.8840     1.9540     0.5960 hn         1 HCE       0.374000
     30 H6          -5.7700    -0.8060     1.0060 hc         1 HCE       0.059700
     31 H7          -5.5020    -1.2230    -0.6820 hc         1 HCE       0.059700
     32 H8          -4.5430     1.0250    -1.1210 h1         1 HCE       0.044200
     33 H9          -4.8140     1.4880     0.5630 h1         1 HCE       0.044200
     34 H10         -1.9560     1.5650    -0.9730 h1         1 HCE       0.052200
     35 H11         -2.2800     2.1560     0.6610 h1         1 HCE       0.052200
     36 H12         -0.5030     0.6880     1.5670 hc         1 HCE       0.095700
     37 H13         -0.1030    -1.2060     0.1620 h1         1 HCE       0.049200
     38 H14         -0.3350    -0.2520    -1.3120 h1         1 HCE       0.049200
     39 H15          0.0070     2.9310    -0.2430 h1         1 HCE       0.027700
     40 H16          1.5580     3.2660     1.3950 ho         1 HCE       0.431000
     41 H17          1.3140     1.6730    -1.6740 h1         1 HCE       0.031700
     42 H18          2.5570     1.9010    -0.4330 h1         1 HCE       0.031700
     43 H20          2.0930    -1.8220    -0.9020 h1         1 HCE       0.038700
     44 H21          1.9040    -0.6940    -2.2420 h1         1 HCE       0.038700
     45 H22          4.1430     0.4530    -3.1350 h4         1 HCE       0.213000
     46 H23          6.4810     0.6810    -2.3270 hn         1 HCE       0.346000
     47 H24          5.4040    -1.7750     2.8430 h5         1 HCE       0.045100
     48 H25          8.9490    -0.1130     0.7160 hn         1 HCE       0.478000
     49 H26          8.4530     0.3750    -0.8340 hn         1 HCE       0.478000
@<TRIPOS>BOND
     1     1     2 1   
     2     2     3 1   
     3     2     4 1   
     4     4     5 1   
     5     4     6 1   
     6     4    27 1   
     7     5    28 1   
     8     5    29 1   
     9     6     7 1   
    10     6    30 1   
    11     6    31 1   
    12     7     8 1   
    13     7    32 1   
    14     7    33 1   
    15     8     9 1   
    16     9    10 1   
    17     9    34 1   
    18     9    35 1   
    19    10    11 1   
    20    10    12 1   
    21    10    36 1   
    22    11    15 1   
    23    11    37 1   
    24    11    38 1   
    25    12    13 1   
    26    12    14 1   
    27    12    39 1   
    28    13    40 1   
    29    14    15 1   
    30    14    41 1   
    31    14    42 1   
    32    15    16 1   
    33    16    17 1   
    34    16    43 1   
    35    16    44 1   
    36    17    18 2   
    37    17    21 1   
    38    18    19 1   
    39    18    45 1   
    40    19    20 1   
    41    19    46 1   
    42    20    21 ar  
    43    20    25 ar  
    44    21    22 ar  
    45    22    23 ar  
    46    23    24 ar  
    47    23    47 1   
    48    24    25 ar  
    49    25    26 1   
    50    26    48 1   
    51    26    49 1   
@<TRIPOS>SUBSTRUCTURE
     1 HCE         1 TEMP              0 ****  ****    0 ROOT
