@<TRIPOS>MOLECULE
HCG
   38    37     1     0     0
SMALL
No Charge or Current Charge


@<TRIPOS>ATOM
      1 C1          -5.6290    -2.2690    -7.9220 c          1 HCG       0.692000
      2 C2          -5.3340    -3.7560    -7.4510 c3         1 HCG       0.014500
      3 C3          -4.5940    -3.7800    -6.0840 c3         1 HCG      -0.041400
      4 C4          -3.1690    -3.1710    -6.0910 c3         1 HCG      -0.063400
      5 C7          -2.4820    -3.2360    -4.7050 c3         1 HCG      -0.153400
      6 C10         -1.0720    -2.6330    -4.7440 c          1 HCG       0.603100
      7 N11         -0.9380    -1.4230    -4.1050 ns         1 HCG      -0.492900
      8 C12          0.3170    -0.6390    -4.0130 c3         1 HCG       0.029700
      9 C13          0.1960     0.4480    -2.9080 c          1 HCG       0.586100
     10 N14         -4.6530    -4.6620    -8.4470 n8         1 HCG      -0.998200
     11 O15         -0.1260    -3.2040    -5.2670 o          1 HCG      -0.632100
     12 C16          0.7140    -0.0150    -5.3790 c3         1 HCG       0.081600
     13 S17         -0.4660     1.2750    -6.0160 sh         1 HCG      -0.554800
     14 O18         -0.8200     0.6130    -2.2420 o          1 HCG      -0.613100
     15 O19         -6.6580    -1.7340    -7.5320 o          1 HCG      -0.738500
     16 O20         -4.8920    -1.7620    -8.7580 o          1 HCG      -0.738500
     17 N29          1.3090     1.2490    -2.7430 ns         1 HCG      -0.468900
     18 C30          1.3070     2.5160    -1.9760 c3         1 HCG      -0.050000
     19 C31          0.5330     3.6520    -2.7130 c          1 HCG       0.716000
     20 O42          0.1390     4.5980    -2.0460 o          1 HCG      -0.732000
     21 O43          0.3430     3.5540    -3.9200 o          1 HCG      -0.732000
     22 H2          -6.3200    -4.2090    -7.2720 h1         1 HCG       0.027700
     23 H3C1        -4.5370    -4.8170    -5.7290 hc         1 HCG       0.022200
     24 H3C2        -5.2050    -3.2400    -5.3490 hc         1 HCG       0.022200
     25 H4C1        -2.5480    -3.7020    -6.8220 hc         1 HCG       0.062200
     26 H4C2        -3.2190    -2.1240    -6.4150 hc         1 HCG       0.062200
     27 H7C1        -3.1030    -2.6920    -3.9840 hc         1 HCG       0.048700
     28 H7C2        -2.4040    -4.2880    -4.4060 hc         1 HCG       0.048700
     29 H11         -1.7720    -1.0360    -3.6770 hn         1 HCG       0.342500
     30 H12          1.1210    -1.3170    -3.7000 h1         1 HCG       0.064700
     31 H141        -3.7940    -4.1950    -8.7620 hn         1 HCG       0.378500
     32 H142        -5.2190    -4.6970    -9.3030 hn         1 HCG       0.378500
     33 H161         1.7110     0.4390    -5.3030 h1         1 HCG       0.067200
     34 H162         0.7830    -0.8130    -6.1290 h1         1 HCG       0.067200
     35 HS          -0.1370     2.2520    -5.1050 hs         1 HCG       0.328800
     36 H29          2.1170     1.0400    -3.3190 hn         1 HCG       0.293500
     37 H30          2.3430     2.8440    -1.8270 h1         1 HCG       0.035200
     38 HC1          0.8460     2.3470    -0.9940 h1         1 HCG       0.035200
@<TRIPOS>BOND
     1     1     2 1   
     2     1    15 1   
     3     1    16 1   
     4     2     3 1   
     5     2    10 1   
     6     2    22 1   
     7     3     4 1   
     8     3    23 1   
     9     3    24 1   
    10     4     5 1   
    11     4    25 1   
    12     4    26 1   
    13     5     6 1   
    14     5    27 1   
    15     5    28 1   
    16     6     7 1   
    17     6    11 2   
    18     7     8 1   
    19     7    29 1   
    20     8     9 1   
    21     8    12 1   
    22     8    30 1   
    23     9    14 2   
    24     9    17 1   
    25    10    31 1   
    26    10    32 1   
    27    12    13 1   
    28    12    33 1   
    29    12    34 1   
    30    13    35 1   
    31    17    18 1   
    32    17    36 1   
    33    18    19 1   
    34    18    37 1   
    35    18    38 1   
    36    19    20 1   
    37    19    21 1   
@<TRIPOS>SUBSTRUCTURE
     1 HCG         1 TEMP              0 ****  ****    0 ROOT
