@<TRIPOS>MOLECULE
HCG
   38    37     1     0     0
SMALL
bcc


@<TRIPOS>ATOM
      1 C1          -5.4920    -3.7140    -8.6070 c          1 HCG       0.902600
      2 C2          -5.2800    -4.5290    -7.3080 c3         1 HCG       0.014500
      3 C3          -4.7790    -3.6020    -6.1950 c3         1 HCG      -0.041400
      4 C4          -3.3880    -3.0270    -6.4400 c3         1 HCG      -0.063400
      5 C7          -2.9490    -2.1310    -5.2920 c3         1 HCG      -0.153400
      6 C10         -1.5430    -1.5870    -5.4340 c          1 HCG       0.670100
      7 N11         -1.2350    -0.6070    -4.5660 ns         1 HCG      -0.559900
      8 C12          0.0750    -0.0310    -4.4610 c3         1 HCG       0.029700
      9 C13          0.2570     0.5140    -3.0440 c          1 HCG       0.653100
     10 N14         -4.4070    -5.6890    -7.4330 n8         1 HCG      -0.887800
     11 O15         -0.7390    -2.0150    -6.2500 o          1 HCG      -0.632100
     12 C16          0.3210     1.0670    -5.5030 c3         1 HCG       0.033700
     13 S17         -0.7470     2.5200    -5.2920 sh         1 HCG      -0.506900
     14 O18         -0.6770     0.5820    -2.2570 o          1 HCG      -0.613100
     15 O19         -6.4110    -2.8690    -8.5790 o          1 HCG      -0.843800
     16 O20         -4.7260    -3.9410    -9.5660 o          1 HCG      -0.843800
     17 N29          1.5000     0.9000    -2.7510 ns         1 HCG      -0.535900
     18 C30          1.8240     1.6160    -1.5440 c3         1 HCG      -0.050000
     19 C31          1.4440     3.1140    -1.5410 c          1 HCG       0.926600
     20 O42          1.6790     3.6980    -0.4680 o          1 HCG      -0.837300
     21 O43          0.9660     3.6110    -2.5780 o          1 HCG      -0.837300
     22 H2          -6.2630    -4.8940    -6.9890 h1         1 HCG       0.027700
     23 H3C1        -4.7710    -4.1590    -5.2520 hc         1 HCG       0.022200
     24 H3C2        -5.4970    -2.7870    -6.0700 hc         1 HCG       0.022200
     25 H4C1        -2.6690    -3.8400    -6.5560 hc         1 HCG       0.062200
     26 H4C2        -3.3740    -2.4580    -7.3740 hc         1 HCG       0.062200
     27 H7C1        -3.6490    -1.2990    -5.1710 hc         1 HCG       0.048700
     28 H7C2        -2.9900    -2.6900    -4.3500 hc         1 HCG       0.048700
     29 H11         -1.9270    -0.2880    -3.9050 hn         1 HCG       0.342500
     30 H12          0.8230    -0.8120    -4.6310 h1         1 HCG       0.064700
     31 H141        -3.6220    -5.4240    -8.0170 hn         1 HCG       0.323300
     32 H142        -4.8870    -6.3940    -7.9810 hn         1 HCG       0.323300
     33 H161         1.3650     1.3800    -5.5010 h1         1 HCG       0.067200
     34 H162         0.1130     0.6680    -6.4950 h1         1 HCG       0.067200
     35 HS          -0.1130     3.0210    -4.2100 hs         1 HCG       0.328800
     36 H29          2.2050     0.8500    -3.4670 hn         1 HCG       0.293500
     37 H30          2.9010     1.5300    -1.3880 h1         1 HCG       0.035200
     38 HC1          1.3510     1.1290    -0.6900 h1         1 HCG       0.035200
@<TRIPOS>BOND
     1     1     2 1   
     2     1    15 1   
     3     1    16 1   
     4     2     3 1   
     5     2    10 1   
     6     2    22 1   
     7     3     4 1   
     8     3    23 1   
     9     3    24 1   
    10     4     5 1   
    11     4    25 1   
    12     4    26 1   
    13     5     6 1   
    14     5    27 1   
    15     5    28 1   
    16     6     7 1   
    17     6    11 2   
    18     7     8 1   
    19     7    29 1   
    20     8     9 1   
    21     8    12 1   
    22     8    30 1   
    23     9    14 2   
    24     9    17 1   
    25    10    31 1   
    26    10    32 1   
    27    12    13 1   
    28    12    33 1   
    29    12    34 1   
    30    13    35 1   
    31    17    18 1   
    32    17    36 1   
    33    18    19 1   
    34    18    37 1   
    35    18    38 1   
    36    19    20 1   
    37    19    21 1   
@<TRIPOS>SUBSTRUCTURE
     1 HCG         1 TEMP              0 ****  ****    0 ROOT
