@<TRIPOS>MOLECULE
HCI
   20    20     1     0     0
SMALL
bcc


@<TRIPOS>ATOM
      1 C1           2.9190    -0.0190    -0.2080 c          1 HCI       0.927600
      2 O1           3.2880     0.0100     0.9830 o          1 HCI      -0.845800
      3 O2           3.6600    -0.0490    -1.2120 o          1 HCI      -0.845800
      4 C2           1.4060    -0.0250    -0.4920 c3         1 HCI      -0.203400
      5 C3           0.5060     0.0510     0.7380 c3         1 HCI      -0.023100
      6 C7          -0.9510     0.0200     0.3680 ca         1 HCI      -0.043300
      7 C8          -1.6050    -1.1920     0.1500 ca         1 HCI      -0.135000
      8 C9          -2.9390    -1.2280    -0.2330 ca         1 HCI      -0.137000
      9 C4          -3.6470    -0.0460    -0.4070 ca         1 HCI      -0.159000
     10 C5          -3.0090     1.1690    -0.1930 ca         1 HCI      -0.137000
     11 C6          -1.6740     1.1980     0.1900 ca         1 HCI      -0.135000
     12 H21          1.1780     0.8070    -1.1670 hc         1 HCI       0.021200
     13 H22          1.1690    -0.9280    -1.0660 hc         1 HCI       0.021200
     14 H31          0.7310    -0.7800     1.4100 hc         1 HCI       0.050700
     15 H32          0.7240     0.9640     1.2950 hc         1 HCI       0.050700
     16 H2          -1.0630    -2.1220     0.2870 ha         1 HCI       0.130000
     17 H3          -3.4270    -2.1810    -0.3950 ha         1 HCI       0.112000
     18 H4          -4.6890    -0.0710    -0.7030 ha         1 HCI       0.110000
     19 H5          -3.5510     2.0970    -0.3220 ha         1 HCI       0.112000
     20 H6          -1.1880     2.1520     0.3600 ha         1 HCI       0.130000
@<TRIPOS>BOND
     1     1     2 1   
     2     1     3 1   
     3     1     4 1   
     4     4     5 1   
     5     4    12 1   
     6     4    13 1   
     7     5     6 1   
     8     5    14 1   
     9     5    15 1   
    10     6     7 ar  
    11     6    11 ar  
    12     7     8 ar  
    13     7    16 1   
    14     8     9 ar  
    15     8    17 1   
    16     9    10 ar  
    17     9    18 1   
    18    10    11 ar  
    19    10    19 1   
    20    11    20 1   
@<TRIPOS>SUBSTRUCTURE
     1 HCI         1 TEMP              0 ****  ****    0 ROOT
