@<TRIPOS>MOLECULE
HCI
   20    20     1     0     0
SMALL
No Charge or Current Charge


@<TRIPOS>ATOM
      1 C1           2.9210    -0.0450    -0.1600 c          1 HCI       0.717000
      2 O1           3.4640    -1.0800     0.1950 o          1 HCI      -0.740500
      3 O2           3.4730     1.0450    -0.1540 o          1 HCI      -0.740500
      4 C2           1.4430    -0.1070    -0.5770 c3         1 HCI      -0.203400
      5 C3           0.5360     0.1000     0.6590 c3         1 HCI      -0.023100
      6 C7          -0.9450     0.0480     0.3050 ca         1 HCI      -0.043300
      7 C8          -1.6410    -1.1770     0.3350 ca         1 HCI      -0.117000
      8 C9          -3.0080    -1.2250     0.0070 ca         1 HCI      -0.119000
      9 C4          -3.6860    -0.0490    -0.3540 ca         1 HCI      -0.141000
     10 C5          -2.9980     1.1750    -0.3880 ca         1 HCI      -0.119000
     11 C6          -1.6310     1.2230    -0.0600 ca         1 HCI      -0.117000
     12 H21          1.2020     0.7110    -1.2660 hc         1 HCI       0.021200
     13 H22          1.1940    -1.1020    -0.9680 hc         1 HCI       0.021200
     14 H31          0.7690    -0.6660     1.4100 hc         1 HCI       0.050700
     15 H32          0.7760     1.0640     1.1250 hc         1 HCI       0.050700
     16 H2          -1.1220    -2.0920     0.6110 ha         1 HCI       0.112000
     17 H3          -3.5390    -2.1730     0.0310 ha         1 HCI       0.094000
     18 H4          -4.7430    -0.0860    -0.6080 ha         1 HCI       0.092000
     19 H5          -3.5210     2.0860    -0.6680 ha         1 HCI       0.094000
     20 H6          -1.1040     2.1750    -0.0900 ha         1 HCI       0.112000
@<TRIPOS>BOND
     1     1     2 1   
     2     1     3 1   
     3     1     4 1   
     4     4     5 1   
     5     4    12 1   
     6     4    13 1   
     7     5     6 1   
     8     5    14 1   
     9     5    15 1   
    10     6     7 ar  
    11     6    11 ar  
    12     7     8 ar  
    13     7    16 1   
    14     8     9 ar  
    15     8    17 1   
    16     9    10 ar  
    17     9    18 1   
    18    10    11 ar  
    19    10    19 1   
    20    11    20 1   
@<TRIPOS>SUBSTRUCTURE
     1 HCI         1 TEMP              0 ****  ****    0 ROOT
