@<TRIPOS>MOLECULE
HCJ
   43    46     1     0     0
SMALL
No Charge or Current Charge


@<TRIPOS>ATOM
      1 CAB         -5.4690     1.4370    -1.1590 c5         1 HCJ       0.190800
      2 NAD         -6.2090     0.5680    -0.2840 na         1 HCJ      -0.671400
      3 CAI         -7.3460     0.9320     0.4380 cc         1 HCJ       0.047000
      4 CAH         -7.8260    -0.1370     1.1610 cd         1 HCJ      -0.361200
      5 CAG         -7.2410    -1.4780     1.1810 c          1 HCJ       0.713700
      6 OAJ         -7.7220    -2.3850     1.8390 o          1 HCJ      -0.530100
      7 NAF         -6.1310    -1.6730     0.4290 nc         1 HCJ      -0.700100
      8 CAE         -5.6390    -0.6780    -0.2510 cd         1 HCJ       0.836500
      9 OAA         -4.5510    -0.7790    -1.0700 os         1 HCJ      -0.368600
     10 CAC         -4.2340     0.5740    -1.5520 c5         1 HCJ       0.149300
     11 CAK         -2.9150     1.0560    -0.9000 c3         1 HCJ       0.149600
     12 OAL         -1.8370     0.2440    -1.4030 os         1 HCJ      -0.327100
     13 CAM         -0.5300     0.4260    -1.0030 ca         1 HCJ       0.145100
     14 CAN          0.4470    -0.4190    -1.5500 ca         1 HCJ      -0.167000
     15 CAO          1.7960    -0.2820    -1.1810 ca         1 HCJ      -0.059500
     16 CAR         -0.1470     1.4190    -0.0770 ca         1 HCJ      -0.167000
     17 CAQ          1.2040     1.5560     0.2910 ca         1 HCJ      -0.059500
     18 CAP          2.2030     0.7090    -0.2520 cp         1 HCJ      -0.073000
     19 CAS          3.6400     0.8570     0.1420 cp         1 HCJ      -0.027000
     20 CAT          4.4840    -0.2760     0.2720 ca         1 HCJ      -0.055000
     21 CAX          4.2000     2.1320     0.3990 ca         1 HCJ      -0.077000
     22 CAW          5.5460     2.2690     0.7730 ca         1 HCJ      -0.116000
     23 CAV          6.3640     1.1350     0.8960 ca         1 HCJ      -0.059000
     24 CAU          5.8420    -0.1510     0.6390 ca         1 HCJ      -0.194300
     25 CAY          6.7190    -1.4000     0.7820 c3         1 HCJ       0.356300
     26 FBA          6.5640    -1.9720     1.9970 f          1 HCJ      -0.113333
     27 FBB          6.4170    -2.3430    -0.1400 f          1 HCJ      -0.113333
     28 FAZ          8.0370    -1.1300     0.6390 f          1 HCJ      -0.113333
     29 H1          -6.0670     1.6990    -2.0430 h1         1 HCJ       0.074200
     30 H2          -5.1830     2.3700    -0.6540 h1         1 HCJ       0.074200
     31 H3          -7.7510     1.9430     0.3870 h4         1 HCJ       0.205000
     32 H4          -8.7080    -0.0390     1.7810 ha         1 HCJ       0.219000
     33 H5          -4.0990     0.5510    -2.6420 h1         1 HCJ       0.106700
     34 H6          -2.7520     2.1110    -1.1570 h1         1 HCJ       0.049700
     35 H7          -2.9960     0.9700     0.1920 h1         1 HCJ       0.049700
     36 H8           0.1570    -1.1830    -2.2660 ha         1 HCJ       0.125000
     37 H9           2.5340    -0.9420    -1.6310 ha         1 HCJ       0.118000
     38 H10         -0.8770     2.0890     0.3690 ha         1 HCJ       0.125000
     39 H11          1.4750     2.3190     1.0160 ha         1 HCJ       0.118000
     40 H12          4.0690    -1.2660     0.1000 ha         1 HCJ       0.130000
     41 H13          3.5890     3.0260     0.2980 ha         1 HCJ       0.118000
     42 H14          5.9570     3.2570     0.9680 ha         1 HCJ       0.121000
     43 H15          7.4040     1.2630     1.1940 ha         1 HCJ       0.133000
@<TRIPOS>BOND
     1     1     2 1   
     2     1    10 1   
     3     1    29 1   
     4     1    30 1   
     5     2     3 1   
     6     2     8 1   
     7     3     4 2   
     8     3    31 1   
     9     4     5 1   
    10     4    32 1   
    11     5     6 2   
    12     5     7 1   
    13     7     8 2   
    14     8     9 1   
    15     9    10 1   
    16    10    11 1   
    17    10    33 1   
    18    11    12 1   
    19    11    34 1   
    20    11    35 1   
    21    12    13 1   
    22    13    14 ar  
    23    13    16 ar  
    24    14    15 ar  
    25    14    36 1   
    26    15    18 ar  
    27    15    37 1   
    28    16    17 ar  
    29    16    38 1   
    30    17    18 ar  
    31    17    39 1   
    32    18    19 1   
    33    19    20 ar  
    34    19    21 ar  
    35    20    24 ar  
    36    20    40 1   
    37    21    22 ar  
    38    21    41 1   
    39    22    23 ar  
    40    22    42 1   
    41    23    24 ar  
    42    23    43 1   
    43    24    25 1   
    44    25    26 1   
    45    25    27 1   
    46    25    28 1   
@<TRIPOS>SUBSTRUCTURE
     1 HCJ         1 TEMP              0 ****  ****    0 ROOT
