@<TRIPOS>MOLECULE
HCJ
   43    46     1     0     0
SMALL
abcg2


@<TRIPOS>ATOM
      1 CAB         -5.3070     1.5280    -1.0960 c5         1 HCJ       0.190800
      2 NAD         -6.0540     0.6180    -0.2530 na         1 HCJ      -0.671400
      3 CAI         -7.1680     0.8560     0.4930 cc         1 HCJ       0.047000
      4 CAH         -7.7460    -0.1680     1.1460 cd         1 HCJ      -0.361200
      5 CAG         -7.1880    -1.5140     1.0440 c          1 HCJ       0.713700
      6 OAJ         -7.6850    -2.4750     1.6140 o          1 HCJ      -0.530100
      7 NAF         -6.0540    -1.6730     0.2670 nc         1 HCJ      -0.700100
      8 CAE         -5.5740    -0.6390    -0.3190 cd         1 HCJ       0.836500
      9 OAA         -4.5070    -0.6990    -1.0990 os         1 HCJ      -0.368600
     10 CAC         -4.1360     0.6270    -1.5230 c5         1 HCJ       0.149300
     11 CAK         -2.8430     1.0380    -0.8610 c3         1 HCJ       0.149600
     12 OAL         -1.8430     0.1400    -1.2800 os         1 HCJ      -0.327100
     13 CAM         -0.5690     0.3590    -0.8960 ca         1 HCJ       0.145100
     14 CAN          0.3870    -0.5310    -1.3870 ca         1 HCJ      -0.167000
     15 CAO          1.7170    -0.3750    -1.0530 ca         1 HCJ      -0.059500
     16 CAR         -0.1680     1.3980    -0.0620 ca         1 HCJ      -0.167000
     17 CAQ          1.1740     1.5390     0.2640 ca         1 HCJ      -0.059500
     18 CAP          2.1430     0.6650    -0.2220 cp         1 HCJ      -0.073000
     19 CAS          3.5660     0.8370     0.1270 cp         1 HCJ      -0.027000
     20 CAT          4.3990    -0.2650     0.2970 ca         1 HCJ      -0.055000
     21 CAX          4.1140     2.1120     0.2940 ca         1 HCJ      -0.077000
     22 CAW          5.4470     2.2750     0.6250 ca         1 HCJ      -0.116000
     23 CAV          6.2730     1.1710     0.7920 ca         1 HCJ      -0.059000
     24 CAU          5.7400    -0.0990     0.6240 ca         1 HCJ      -0.194300
     25 CAY          6.5880    -1.3220     0.7860 c3         1 HCJ       0.356300
     26 FBA          6.0710    -2.1710     1.6870 f          1 HCJ      -0.113333
     27 FBB          6.6910    -2.0080    -0.3620 f          1 HCJ      -0.113333
     28 FAZ          7.8310    -1.0400     1.1840 f          1 HCJ      -0.113333
     29 H1          -5.9080     1.8560    -1.9430 h1         1 HCJ       0.074200
     30 H2          -4.9810     2.4040    -0.5350 h1         1 HCJ       0.074200
     31 H3          -7.5270     1.8740     0.5210 h4         1 HCJ       0.205000
     32 H4          -8.6270    -0.0010     1.7460 ha         1 HCJ       0.219000
     33 H5          -4.0190     0.6030    -2.6060 h1         1 HCJ       0.106700
     34 H6          -2.6160     2.0640    -1.1730 h1         1 HCJ       0.049700
     35 H7          -2.9550     1.0370     0.2310 h1         1 HCJ       0.049700
     36 H8           0.0810    -1.3380    -2.0410 ha         1 HCJ       0.125000
     37 H9           2.4380    -1.0670    -1.4710 ha         1 HCJ       0.118000
     38 H10         -0.8760     2.1020     0.3530 ha         1 HCJ       0.125000
     39 H11          1.4560     2.3480     0.9270 ha         1 HCJ       0.118000
     40 H12          3.9890    -1.2620     0.1900 ha         1 HCJ       0.130000
     41 H13          3.4950     2.9880     0.1450 ha         1 HCJ       0.118000
     42 H14          5.8530     3.2700     0.7480 ha         1 HCJ       0.121000
     43 H15          7.3130     1.3190     1.0440 ha         1 HCJ       0.133000
@<TRIPOS>BOND
     1     1     2 1   
     2     1    10 1   
     3     1    29 1   
     4     1    30 1   
     5     2     3 1   
     6     2     8 1   
     7     3     4 2   
     8     3    31 1   
     9     4     5 1   
    10     4    32 1   
    11     5     6 2   
    12     5     7 1   
    13     7     8 2   
    14     8     9 1   
    15     9    10 1   
    16    10    11 1   
    17    10    33 1   
    18    11    12 1   
    19    11    34 1   
    20    11    35 1   
    21    12    13 1   
    22    13    14 ar  
    23    13    16 ar  
    24    14    15 ar  
    25    14    36 1   
    26    15    18 ar  
    27    15    37 1   
    28    16    17 ar  
    29    16    38 1   
    30    17    18 ar  
    31    17    39 1   
    32    18    19 1   
    33    19    20 ar  
    34    19    21 ar  
    35    20    24 ar  
    36    20    40 1   
    37    21    22 ar  
    38    21    41 1   
    39    22    23 ar  
    40    22    42 1   
    41    23    24 ar  
    42    23    43 1   
    43    24    25 1   
    44    25    26 1   
    45    25    27 1   
    46    25    28 1   
@<TRIPOS>SUBSTRUCTURE
     1 HCJ         1 TEMP              0 ****  ****    0 ROOT
