@<TRIPOS>MOLECULE
HCK
   38    40     1     0     0
SMALL
No Charge or Current Charge


@<TRIPOS>ATOM
      1 C1          -3.9100     1.0900    -0.3240 ca         1 HCK      -0.118500
      2 C2          -3.4160    -0.1870     0.0070 ca         1 HCK      -0.064000
      3 C3          -4.3360    -1.1920     0.3710 ca         1 HCK      -0.118500
      4 C4          -5.7170    -0.9280     0.3940 ca         1 HCK      -0.092500
      5 C5          -6.2170     0.3510     0.0570 ca         1 HCK      -0.111600
      6 C6          -5.2900     1.3560    -0.3020 ca         1 HCK      -0.092500
      7 C13         -1.9720    -0.4450    -0.0190 cc         1 HCK      -0.097000
      8 C15         -1.4570    -1.7090    -0.2060 cd         1 HCK       0.256900
      9 N16         -0.0690    -1.7600    -0.2230 nd         1 HCK      -0.645000
     10 C17          0.4350    -0.5460    -0.0580 cc         1 HCK       0.535300
     11 S18         -0.7210     0.7510     0.1200 ss         1 HCK      -0.116400
     12 C24         -7.7110     0.6380     0.0810 c          1 HCK       0.710600
     13 O26         -8.0980     1.7600    -0.2160 o          1 HCK      -0.715500
     14 O28         -8.4760    -0.2630     0.3980 o          1 HCK      -0.715500
     15 N30          1.7840    -0.2810    -0.0290 ns         1 HCK      -0.481400
     16 C32          2.8540    -1.1410    -0.1480 c          1 HCK       0.624700
     17 C33          4.2290    -0.5030    -0.0710 ca         1 HCK      -0.191600
     18 O36          2.7290    -2.3470    -0.3080 o          1 HCK      -0.537100
     19 C38          4.4150     0.8910     0.1120 ca         1 HCK      -0.031500
     20 C39          5.7090     1.4350     0.1770 ca         1 HCK      -0.187500
     21 C40          6.8390     0.6140     0.0640 ca         1 HCK       0.160100
     22 C41          6.6690    -0.7730    -0.1180 ca         1 HCK      -0.187500
     23 C42          5.3770    -1.3230    -0.1840 ca         1 HCK      -0.031500
     24 O49          8.0810     1.2100     0.1370 os         1 HCK      -0.341100
     25 C51          9.3020     0.4550     0.0320 c3         1 HCK       0.148900
     26 H1          -3.2270     1.8850    -0.6090 ha         1 HCK       0.089500
     27 H2          -3.9920    -2.1840     0.6510 ha         1 HCK       0.089500
     28 H3          -6.4000    -1.7250     0.6810 ha         1 HCK       0.131000
     29 H4          -5.6380     2.3530    -0.5670 ha         1 HCK       0.131000
     30 H5          -2.0230    -2.6230    -0.3440 h4         1 HCK       0.044100
     31 H7           2.0380     0.6840     0.0990 hn         1 HCK       0.325500
     32 H8           3.5730     1.5720     0.2050 ha         1 HCK       0.127000
     33 H9           5.8380     2.5050     0.3180 ha         1 HCK       0.123500
     34 H10          7.5210    -1.4390    -0.2100 ha         1 HCK       0.123500
     35 H11          5.2730    -2.3970    -0.3250 ha         1 HCK       0.127000
     36 H12         10.1690     1.1220     0.1150 h1         1 HCK       0.041700
     37 H13          9.3690    -0.2920     0.8330 h1         1 HCK       0.041700
     38 H14          9.3600    -0.0590    -0.9360 h1         1 HCK       0.041700
@<TRIPOS>BOND
     1     1     2 ar  
     2     1     6 ar  
     3     1    26 1   
     4     2     3 ar  
     5     2     7 1   
     6     3     4 ar  
     7     3    27 1   
     8     4     5 ar  
     9     4    28 1   
    10     5     6 ar  
    11     5    12 1   
    12     6    29 1   
    13     7     8 2   
    14     7    11 1   
    15     8     9 1   
    16     8    30 1   
    17     9    10 2   
    18    10    11 1   
    19    10    15 1   
    20    12    13 1   
    21    12    14 1   
    22    15    16 1   
    23    15    31 1   
    24    16    17 1   
    25    16    18 2   
    26    17    19 ar  
    27    17    23 ar  
    28    19    20 ar  
    29    19    32 1   
    30    20    21 ar  
    31    20    33 1   
    32    21    22 ar  
    33    21    24 1   
    34    22    23 ar  
    35    22    34 1   
    36    23    35 1   
    37    24    25 1   
    38    25    36 1   
    39    25    37 1   
    40    25    38 1   
@<TRIPOS>SUBSTRUCTURE
     1 HCK         1 TEMP              0 ****  ****    0 ROOT
