@<TRIPOS>MOLECULE
HCK
   38    40     1     0     0
SMALL
bcc


@<TRIPOS>ATOM
      1 C1          -3.8210     1.0440    -0.3770 ca         1 HCK      -0.136500
      2 C2          -3.3780    -0.2180     0.0250 ca         1 HCK      -0.064000
      3 C3          -4.3430    -1.1920     0.3050 ca         1 HCK      -0.136500
      4 C4          -5.6910    -0.9080     0.1850 ca         1 HCK      -0.110500
      5 C5          -6.1330     0.3520    -0.2160 ca         1 HCK      -0.111600
      6 C6          -5.1730     1.3200    -0.4920 ca         1 HCK      -0.110500
      7 C13         -1.9590    -0.5300     0.1510 cc         1 HCK      -0.017400
      8 C15         -1.3580    -1.6840     0.5560 cd         1 HCK       0.322200
      9 N16          0.0030    -1.6910     0.6000 nd         1 HCK      -0.645000
     10 C17          0.4780    -0.5530     0.2210 cc         1 HCK       0.535300
     11 S18         -0.7170     0.6230    -0.2280 ss         1 HCK      -0.261300
     12 C24         -7.6190     0.6570    -0.3470 c          1 HCK       0.921200
     13 O26         -7.9220     1.8160    -0.6900 o          1 HCK      -0.820800
     14 O28         -8.4020    -0.2800    -0.1010 o          1 HCK      -0.820800
     15 N30          1.8080    -0.2100     0.1570 ns         1 HCK      -0.548400
     16 C32          2.8550    -1.0940     0.0110 c          1 HCK       0.691700
     17 C33          4.2030    -0.4790     0.0710 ca         1 HCK      -0.191600
     18 O36          2.6870    -2.2810    -0.1710 o          1 HCK      -0.537100
     19 C38          4.4720     0.7300     0.7180 ca         1 HCK      -0.049500
     20 C39          5.7520     1.2400     0.7610 ca         1 HCK      -0.205500
     21 C40          6.8060     0.5530     0.1490 ca         1 HCK       0.160100
     22 C41          6.5510    -0.6590    -0.4930 ca         1 HCK      -0.205500
     23 C42          5.2620    -1.1640    -0.5170 ca         1 HCK      -0.049500
     24 O49          8.0130     1.1230     0.2340 os         1 HCK      -0.317900
     25 C51          9.1190     0.4750    -0.3710 c3         1 HCK       0.125700
     26 H1          -3.1090     1.8310    -0.6030 ha         1 HCK       0.107500
     27 H2          -4.0430    -2.1830     0.6210 ha         1 HCK       0.107500
     28 H3          -6.4170    -1.6790     0.4040 ha         1 HCK       0.149000
     29 H4          -5.4890     2.3060    -0.8060 ha         1 HCK       0.149000
     30 H5          -1.8880    -2.5760     0.8560 h4         1 HCK       0.044100
     31 H7           2.0170     0.7750     0.0980 hn         1 HCK       0.325500
     32 H8           3.6910     1.2810     1.2280 ha         1 HCK       0.145000
     33 H9           5.9500     2.1710     1.2750 ha         1 HCK       0.141500
     34 H10          7.3390    -1.2200    -0.9750 ha         1 HCK       0.141500
     35 H11          5.0800    -2.1070    -1.0160 ha         1 HCK       0.145000
     36 H12          9.9850     1.1030    -0.1780 h1         1 HCK       0.041700
     37 H13          9.2960    -0.5130     0.0590 h1         1 HCK       0.041700
     38 H14          8.9890     0.3750    -1.4510 h1         1 HCK       0.041700
@<TRIPOS>BOND
     1     1     2 ar  
     2     1     6 ar  
     3     1    26 1   
     4     2     3 ar  
     5     2     7 1   
     6     3     4 ar  
     7     3    27 1   
     8     4     5 ar  
     9     4    28 1   
    10     5     6 ar  
    11     5    12 1   
    12     6    29 1   
    13     7     8 2   
    14     7    11 1   
    15     8     9 1   
    16     8    30 1   
    17     9    10 2   
    18    10    11 1   
    19    10    15 1   
    20    12    13 1   
    21    12    14 1   
    22    15    16 1   
    23    15    31 1   
    24    16    17 1   
    25    16    18 2   
    26    17    19 ar  
    27    17    23 ar  
    28    19    20 ar  
    29    19    32 1   
    30    20    21 ar  
    31    20    33 1   
    32    21    22 ar  
    33    21    24 1   
    34    22    23 ar  
    35    22    34 1   
    36    23    35 1   
    37    24    25 1   
    38    25    36 1   
    39    25    37 1   
    40    25    38 1   
@<TRIPOS>SUBSTRUCTURE
     1 HCK         1 TEMP              0 ****  ****    0 ROOT
