@<TRIPOS>MOLECULE
HCL
   21    21     1     0     0
SMALL
bcc


@<TRIPOS>ATOM
      1 C           -0.1200     5.7070    33.6540 c          1 HCL       0.940600
      2 N            1.7220     4.3250    34.5750 n8         1 HCL      -0.896800
      3 O           -0.4150     6.7380    33.0290 o          1 HCL      -0.815800
      4 C1           2.2850     6.4650    33.5360 ca         1 HCL       0.088700
      5 C2           2.5940     7.7980    33.7810 ca         1 HCL      -0.027600
      6 C3           3.5220     8.4830    32.9910 ca         1 HCL       0.157100
      7 O3           3.7740     9.7690    33.2900 oh         1 HCL      -0.488100
      8 C4           4.1460     7.8310    31.9380 ca         1 HCL      -0.283000
      9 C5           2.9310     5.8220    32.4830 ca         1 HCL      -0.226000
     10 C6           3.8450     6.4960    31.6860 ca         1 HCL       0.156100
     11 CA           1.2800     5.6890    34.3530 c3         1 HCL       0.029800
     12 OXT         -0.8230     4.6940    33.8290 o          1 HCL      -0.815800
     13 H2           2.3340     4.2830    35.3790 hn         1 HCL       0.336800
     14 H            0.9010     3.7750    34.7900 hn         1 HCL       0.336800
     15 HO3          4.4380    10.1250    32.6880 ho         1 HCL       0.410000
     16 H4           4.8670     8.3550    31.3200 ha         1 HCL       0.126000
     17 HO4          4.1990     4.9880    30.5680 ho         1 HCL       0.422000
     18 H5           2.7130     4.7750    32.3050 ha         1 HCL       0.157000
     19 HA           1.1250     6.2250    35.3000 h1         1 HCL       0.028700
     20 O4           4.4810     5.9060    30.6530 oh         1 HCL      -0.516100
     21 CL           1.8580     8.6820    35.0850 cl         1 HCL      -0.119400
@<TRIPOS>BOND
     1     1     3 1   
     2     1    11 1   
     3     1    12 1   
     4     2    11 1   
     5     2    13 1   
     6     2    14 1   
     7     4     5 ar  
     8     4     9 ar  
     9     4    11 1   
    10     5     6 ar  
    11     5    21 1   
    12     6     7 1   
    13     6     8 ar  
    14     7    15 1   
    15     8    10 ar  
    16     8    16 1   
    17     9    10 ar  
    18     9    18 1   
    19    10    20 1   
    20    11    19 1   
    21    17    20 1   
@<TRIPOS>SUBSTRUCTURE
     1 HCL         1 TEMP              0 ****  ****    0 ROOT
