@<TRIPOS>MOLECULE
HCL
   21    21     1     0     0
SMALL
No Charge or Current Charge


@<TRIPOS>ATOM
      1 C           -0.2170     5.8860    33.7400 c          1 HCL       0.940600
      2 N            1.6410     4.1040    34.3950 n8         1 HCL      -0.896800
      3 O           -0.4330     5.8930    32.5300 o          1 HCL      -0.815800
      4 C1           2.2760     6.4020    33.4830 ca         1 HCL       0.088700
      5 C2           2.5040     7.7670    33.7950 ca         1 HCL      -0.027600
      6 C3           3.4530     8.5100    33.0600 ca         1 HCL       0.157100
      7 O3           3.6870     9.8230    33.3470 oh         1 HCL      -0.488100
      8 C4           4.1710     7.9090    32.0190 ca         1 HCL      -0.283000
      9 C5           3.0050     5.8190    32.4210 ca         1 HCL      -0.226000
     10 C6           3.9430     6.5680    31.7000 ca         1 HCL       0.156100
     11 CA           1.2460     5.5670    34.2690 c3         1 HCL       0.029800
     12 OXT         -1.1120     6.0520    34.5650 o          1 HCL      -0.815800
     13 H2           2.5450     4.0340    34.8740 hn         1 HCL       0.336800
     14 H            0.9810     3.6270    35.0200 hn         1 HCL       0.336800
     15 HO3          4.3710    10.1530    32.7300 ho         1 HCL       0.410000
     16 H4           4.9020     8.4780    31.4510 ha         1 HCL       0.126000
     17 HO4          4.3560     5.0630    30.5990 ho         1 HCL       0.422000
     18 H5           2.8310     4.7800    32.1560 ha         1 HCL       0.157000
     19 HA           1.2630     5.9310    35.3040 h1         1 HCL       0.028700
     20 O4           4.6410     5.9970    30.6820 oh         1 HCL      -0.516100
     21 Cl           1.6020     8.5660    35.0940 cl         1 HCL      -0.119400
@<TRIPOS>BOND
     1     1     3 1   
     2     1    11 1   
     3     1    12 1   
     4     2    11 1   
     5     2    13 1   
     6     2    14 1   
     7     4     5 ar  
     8     4     9 ar  
     9     4    11 1   
    10     5     6 ar  
    11     5    21 1   
    12     6     7 1   
    13     6     8 ar  
    14     7    15 1   
    15     8    10 ar  
    16     8    16 1   
    17     9    10 ar  
    18     9    18 1   
    19    10    20 1   
    20    11    19 1   
    21    17    20 1   
@<TRIPOS>SUBSTRUCTURE
     1 HCL         1 TEMP              0 ****  ****    0 ROOT
