@<TRIPOS>MOLECULE
HCM
   20    19     1     0     0
SMALL
No Charge or Current Charge


@<TRIPOS>ATOM
      1 C1          38.0840   -15.4800     4.3380 c3         1 HCM      -0.019000
      2 S2          39.4010   -14.3220     4.9050 ss         1 HCM      -0.280100
      3 SD          40.3190   -15.3550     6.4810 ss         1 HCM      -0.065100
      4 CG          39.3450   -14.8600     7.9710 c3         1 HCM       0.017700
      5 CB          39.5350   -13.3710     8.3550 c3         1 HCM      -0.041400
      6 CA          40.8150   -13.0590     9.1810 c3         1 HCM       0.012500
      7 C           42.1530   -13.4080     8.3920 c          1 HCM       0.904600
      8 OXT         42.8390   -14.3420     8.7960 o          1 HCM      -0.831800
      9 O           42.5620   -12.6140     7.5500 o          1 HCM      -0.831800
     10 N           40.7150   -11.6600     9.7480 n8         1 HCM      -0.890800
     11 H11         37.5330   -15.0320     3.5020 h1         1 HCM       0.049033
     12 H12         38.5380   -16.4230     4.0090 h1         1 HCM       0.049033
     13 H13         37.3890   -15.6820     5.1630 h1         1 HCM       0.049033
     14 HG1         38.2870   -15.0420     7.7480 h1         1 HCM       0.060700
     15 HG2         39.6270   -15.5010     8.8160 h1         1 HCM       0.060700
     16 HB2         39.5090   -12.7480     7.4530 hc         1 HCM       0.033700
     17 HB1         38.6640   -13.0800     8.9550 hc         1 HCM       0.033700
     18 HA          40.7950   -13.7300    10.0510 h1         1 HCM       0.033700
     19 H           41.5110   -11.4940    10.3740 hn         1 HCM       0.328800
     20 H2          40.8600   -10.9890     8.9850 hn         1 HCM       0.328800
@<TRIPOS>BOND
     1     1     2 1   
     2     1    11 1   
     3     1    12 1   
     4     1    13 1   
     5     2     3 1   
     6     3     4 1   
     7     4     5 1   
     8     4    14 1   
     9     4    15 1   
    10     5     6 1   
    11     5    16 1   
    12     5    17 1   
    13     6     7 1   
    14     6    10 1   
    15     6    18 1   
    16     7     8 1   
    17     7     9 1   
    18    10    19 1   
    19    10    20 1   
@<TRIPOS>SUBSTRUCTURE
     1 HCM         1 TEMP              0 ****  ****    0 ROOT
