@<TRIPOS>MOLECULE
HCM
   20    19     1     0     0
SMALL
bcc


@<TRIPOS>ATOM
      1 C1          38.0770   -15.6920     4.4610 c3         1 HCM      -0.019000
      2 S2          39.1150   -14.2380     4.7630 ss         1 HCM      -0.280100
      3 SD          40.3990   -14.8910     6.2300 ss         1 HCM      -0.065100
      4 CG          39.4170   -14.6290     7.7490 c3         1 HCM       0.017700
      5 CB          39.5590   -13.2440     8.3590 c3         1 HCM      -0.041400
      6 CA          40.7920   -13.0500     9.2490 c3         1 HCM       0.012500
      7 C           42.0880   -13.4500     8.5040 c          1 HCM       0.904600
      8 OXT         42.3850   -14.6650     8.5260 o          1 HCM      -0.831800
      9 O           42.7120   -12.5370     7.9280 o          1 HCM      -0.831800
     10 N           40.7710   -11.6830     9.7580 n8         1 HCM      -0.890800
     11 H11         37.3690   -15.4200     3.6780 h1         1 HCM       0.049033
     12 H12         38.6760   -16.5340     4.1220 h1         1 HCM       0.049033
     13 H13         37.5200   -15.9670     5.3540 h1         1 HCM       0.049033
     14 HG1         38.3780   -14.8440     7.4970 h1         1 HCM       0.060700
     15 HG2         39.7420   -15.4030     8.4440 h1         1 HCM       0.060700
     16 HB2         39.5490   -12.4920     7.5630 hc         1 HCM       0.033700
     17 HB1         38.6750   -13.0470     8.9730 hc         1 HCM       0.033700
     18 HA          40.6780   -13.7240    10.1050 h1         1 HCM       0.033700
     19 H           41.4630   -11.5990    10.4930 hn         1 HCM       0.328800
     20 H2          41.1160   -11.0820     9.0170 hn         1 HCM       0.328800
@<TRIPOS>BOND
     1     1     2 1   
     2     1    11 1   
     3     1    12 1   
     4     1    13 1   
     5     2     3 1   
     6     3     4 1   
     7     4     5 1   
     8     4    14 1   
     9     4    15 1   
    10     5     6 1   
    11     5    16 1   
    12     5    17 1   
    13     6     7 1   
    14     6    10 1   
    15     6    18 1   
    16     7     8 1   
    17     7     9 1   
    18    10    19 1   
    19    10    20 1   
@<TRIPOS>SUBSTRUCTURE
     1 HCM         1 TEMP              0 ****  ****    0 ROOT
