@<TRIPOS>MOLECULE
HCR
   75    78     1     0     0
SMALL
No Charge or Current Charge


@<TRIPOS>ATOM
      1 C18         -0.6530     0.6320    -2.0290 c3         1 HCR      -0.078100
      2 C13         -0.5970     0.3550    -0.4860 c5         1 HCR      -0.036000
      3 C12          0.0410     1.5870     0.2300 c6         1 HCR      -0.062400
      4 C11          1.5480     1.7440    -0.1030 c6         1 HCR      -0.071400
      5 C9           2.3900     0.4620     0.2280 c6         1 HCR      -0.045700
      6 C10          3.9320     0.6210    -0.1030 c6         1 HCR      -0.000800
      7 C19          4.1750     0.9890    -1.6090 c3         1 HCR      -0.080100
      8 C1           4.5350     1.7370     0.8250 c6         1 HCR      -0.063400
      9 C2           6.0820     1.7920     0.8360 c6         1 HCR      -0.111400
     10 C3           6.6690     0.4260     1.2410 c6         1 HCR       0.172300
     11 O1           8.0980     0.4900     1.2440 oh         1 HCR      -0.660000
     12 C4           6.1860    -0.6650     0.2620 c6         1 HCR      -0.038200
     13 C5           4.6580    -0.7210     0.1430 c2         1 HCR      -0.086400
     14 C6           4.0190    -1.9020     0.2010 c2         1 HCR      -0.259200
     15 C7           2.5240    -2.0990     0.0510 c6         1 HCR       0.213500
     16 O2           2.3250    -3.1780    -0.8640 oh         1 HCR      -0.658000
     17 C8           1.7660    -0.8200    -0.4270 c6         1 HCR      -0.038700
     18 C14          0.2430    -0.8990    -0.0690 c5         1 HCR      -0.058700
     19 C15         -0.5830    -2.0660    -0.6700 c5         1 HCR      -0.066400
     20 C16         -2.0600    -1.6330    -0.4210 c5         1 HCR      -0.079400
     21 C17         -1.9900    -0.1240     0.0910 c5         1 HCR      -0.054700
     22 C20         -3.2950     0.6890    -0.2400 c3         1 HCR      -0.046700
     23 C21         -3.2140     2.1920     0.1240 c3         1 HCR      -0.086100
     24 C22         -4.5690     0.0250     0.4230 c3         1 HCR      -0.077400
     25 C23         -5.9900     0.5870     0.0620 c3         1 HCR      -0.073400
     26 C24         -7.1390    -0.2630     0.6560 c3         1 HCR      -0.073400
     27 C25         -8.5640     0.3110     0.4240 c3         1 HCR      -0.059700
     28 C27         -8.9370     0.4130    -1.0750 c3         1 HCR      -0.087100
     29 C26         -9.6220    -0.5090     1.1960 c3         1 HCR      -0.087100
     30 H181         0.3420     0.7050    -2.4790 hc         1 HCR       0.032700
     31 H182        -1.1930    -0.1460    -2.5790 hc         1 HCR       0.032700
     32 H183        -1.1700     1.5760    -2.2390 hc         1 HCR       0.032700
     33 H121        -0.4640     2.5190    -0.0450 hc         1 HCR       0.040200
     34 H122        -0.0770     1.4870     1.3180 hc         1 HCR       0.040200
     35 H111         1.6540     2.0160    -1.1590 hc         1 HCR       0.040200
     36 H112         1.9280     2.6010     0.4660 hc         1 HCR       0.040200
     37 H9           2.3110     0.3150     1.3150 hc         1 HCR       0.043700
     38 H191         3.7680     1.9740    -1.8630 hc         1 HCR       0.037033
     39 H192         5.2410     1.0280    -1.8550 hc         1 HCR       0.037033
     40 H193         3.7260     0.2570    -2.2880 hc         1 HCR       0.037033
     41 H11          4.1600     2.7260     0.5280 hc         1 HCR       0.042200
     42 H12          4.1920     1.5820     1.8570 hc         1 HCR       0.042200
     43 H21          6.4610     2.0960    -0.1490 hc         1 HCR       0.046200
     44 H22          6.4110     2.5640     1.5450 hc         1 HCR       0.046200
     45 H3           6.3060     0.1730     2.2480 h1         1 HCR       0.030700
     46 HO1          8.3460     1.1750     1.9040 ho         1 HCR       0.442000
     47 H41          6.6200    -0.4830    -0.7300 hc         1 HCR       0.060200
     48 H42          6.5810    -1.6380     0.5840 hc         1 HCR       0.060200
     49 H6           4.5880    -2.8170     0.3660 ha         1 HCR       0.169000
     50 H7           2.1350    -2.3780     1.0420 h1         1 HCR       0.033700
     51 HO2          2.7520    -3.9630    -0.4640 ho         1 HCR       0.439000
     52 H8           1.8660    -0.7490    -1.5170 hc         1 HCR       0.072700
     53 H14          0.2380    -0.9990     1.0250 hc         1 HCR       0.036700
     54 H151        -0.3790    -2.1990    -1.7390 hc         1 HCR       0.048700
     55 H152        -0.3580    -3.0230    -0.1850 hc         1 HCR       0.048700
     56 H161        -2.6540    -1.8000    -1.3410 hc         1 HCR       0.039700
     57 H162        -2.5210    -2.2690     0.3440 hc         1 HCR       0.039700
     58 H17         -1.9330    -0.1290     1.1870 hc         1 HCR       0.042700
     59 H20         -3.4550     0.6410    -1.3250 hc         1 HCR       0.046700
     60 H211        -2.5410     2.7210    -0.5570 hc         1 HCR       0.031700
     61 H212        -4.1840     2.6880     0.0240 hc         1 HCR       0.031700
     62 H213        -2.8640     2.3300     1.1540 hc         1 HCR       0.031700
     63 H221        -4.5830    -1.0390     0.1620 hc         1 HCR       0.037200
     64 H222        -4.4480     0.0630     1.5120 hc         1 HCR       0.037200
     65 H231        -6.0900     1.6140     0.4330 hc         1 HCR       0.038200
     66 H232        -6.0820     0.6240    -1.0290 hc         1 HCR       0.038200
     67 H241        -7.0870    -1.2780     0.2420 hc         1 HCR       0.036200
     68 H242        -6.9720    -0.3580     1.7370 hc         1 HCR       0.036200
     69 H25         -8.5830     1.3280     0.8360 hc         1 HCR       0.043700
     70 H271        -8.2790     1.1130    -1.6020 hc         1 HCR       0.031367
     71 H272        -8.8640    -0.5670    -1.5630 hc         1 HCR       0.031367
     72 H273        -9.9650     0.7780    -1.1930 hc         1 HCR       0.031367
     73 H261        -9.3910    -0.5320     2.2680 hc         1 HCR       0.031367
     74 H262       -10.6190    -0.0680     1.0760 hc         1 HCR       0.031367
     75 H263        -9.6570    -1.5430     0.8310 hc         1 HCR       0.031367
@<TRIPOS>BOND
     1     1     2 1   
     2     1    30 1   
     3     1    31 1   
     4     1    32 1   
     5     2     3 1   
     6     2    18 1   
     7     2    21 1   
     8     3     4 1   
     9     3    33 1   
    10     3    34 1   
    11     4     5 1   
    12     4    35 1   
    13     4    36 1   
    14     5     6 1   
    15     5    17 1   
    16     5    37 1   
    17     6     7 1   
    18     6     8 1   
    19     6    13 1   
    20     7    38 1   
    21     7    39 1   
    22     7    40 1   
    23     8     9 1   
    24     8    41 1   
    25     8    42 1   
    26     9    10 1   
    27     9    43 1   
    28     9    44 1   
    29    10    11 1   
    30    10    12 1   
    31    10    45 1   
    32    11    46 1   
    33    12    13 1   
    34    12    47 1   
    35    12    48 1   
    36    13    14 2   
    37    14    15 1   
    38    14    49 1   
    39    15    16 1   
    40    15    17 1   
    41    15    50 1   
    42    16    51 1   
    43    17    18 1   
    44    17    52 1   
    45    18    19 1   
    46    18    53 1   
    47    19    20 1   
    48    19    54 1   
    49    19    55 1   
    50    20    21 1   
    51    20    56 1   
    52    20    57 1   
    53    21    22 1   
    54    21    58 1   
    55    22    23 1   
    56    22    24 1   
    57    22    59 1   
    58    23    60 1   
    59    23    61 1   
    60    23    62 1   
    61    24    25 1   
    62    24    63 1   
    63    24    64 1   
    64    25    26 1   
    65    25    65 1   
    66    25    66 1   
    67    26    27 1   
    68    26    67 1   
    69    26    68 1   
    70    27    28 1   
    71    27    29 1   
    72    27    69 1   
    73    28    70 1   
    74    28    71 1   
    75    28    72 1   
    76    29    73 1   
    77    29    74 1   
    78    29    75 1   
@<TRIPOS>SUBSTRUCTURE
     1 HCR         1 TEMP              0 ****  ****    0 ROOT
