@<TRIPOS>MOLECULE
HCR
   75    78     1     0     0
SMALL
bcc


@<TRIPOS>ATOM
      1 C18         -0.7010     0.6550    -1.8410 c3         1 HCR      -0.078100
      2 C13         -0.6150     0.3910    -0.3350 c5         1 HCR      -0.036000
      3 C12          0.0390     1.5670     0.3910 c6         1 HCR      -0.062400
      4 C11          1.5140     1.7100     0.0180 c6         1 HCR      -0.071400
      5 C9           2.3390     0.4410     0.2510 c6         1 HCR      -0.045700
      6 C10          3.8320     0.6240    -0.1220 c6         1 HCR      -0.000800
      7 C19          4.0070     1.1010    -1.5720 c3         1 HCR      -0.080100
      8 C1           4.4580     1.6510     0.8460 c6         1 HCR      -0.063400
      9 C2           5.9790     1.7110     0.8050 c6         1 HCR      -0.111400
     10 C3           6.5780     0.3440     1.0950 c6         1 HCR       0.149100
     11 O1           7.9890     0.3410     1.0320 oh         1 HCR      -0.597800
     12 C4           6.0660    -0.6600     0.0740 c6         1 HCR      -0.038200
     13 C5           4.5610    -0.6980     0.0280 c2         1 HCR      -0.086400
     14 C6           3.9170    -1.8600     0.0880 c2         1 HCR      -0.209200
     15 C7           2.4350    -2.0520    -0.0160 c6         1 HCR       0.190300
     16 O2           2.1520    -3.0620    -0.9740 oh         1 HCR      -0.595800
     17 C8           1.6930    -0.7820    -0.4210 c6         1 HCR      -0.038700
     18 C14          0.2240    -0.8600    -0.0140 c5         1 HCR      -0.058700
     19 C15         -0.6350    -2.0120    -0.5260 c5         1 HCR      -0.066400
     20 C16         -2.0710    -1.5540    -0.2080 c5         1 HCR      -0.079400
     21 C17         -1.9930    -0.0610     0.2080 c5         1 HCR      -0.054700
     22 C20         -3.2540     0.7170    -0.1950 c3         1 HCR      -0.046700
     23 C21         -3.1710     2.2080     0.1250 c3         1 HCR      -0.086100
     24 C22         -4.4790     0.0930     0.4870 c3         1 HCR      -0.077400
     25 C23         -5.8340     0.5920    -0.0040 c3         1 HCR      -0.073400
     26 C24         -6.9840    -0.1580     0.6590 c3         1 HCR      -0.073400
     27 C25         -8.3860     0.2960     0.2500 c3         1 HCR      -0.059700
     28 C27         -8.6420     0.0980    -1.2420 c3         1 HCR      -0.087100
     29 C26         -9.4380    -0.4440     1.0710 c3         1 HCR      -0.087100
     30 H181         0.2790     0.7610    -2.3080 hc         1 HCR       0.032700
     31 H182        -1.2180    -0.1480    -2.3710 hc         1 HCR       0.032700
     32 H183        -1.2490     1.5760    -2.0470 hc         1 HCR       0.032700
     33 H121        -0.4640     2.5100     0.1730 hc         1 HCR       0.040200
     34 H122        -0.0540     1.4090     1.4720 hc         1 HCR       0.040200
     35 H111         1.5880     2.0140    -1.0290 hc         1 HCR       0.040200
     36 H112         1.9380     2.5350     0.5960 hc         1 HCR       0.040200
     37 H9           2.3180     0.2440     1.3340 hc         1 HCR       0.043700
     38 H191         3.6460     2.1220    -1.7090 hc         1 HCR       0.037033
     39 H192         5.0550     1.0940    -1.8750 hc         1 HCR       0.037033
     40 H193         3.4700     0.4600    -2.2720 hc         1 HCR       0.037033
     41 H11          4.0610     2.6450     0.6300 hc         1 HCR       0.042200
     42 H12          4.1390     1.4090     1.8660 hc         1 HCR       0.042200
     43 H21          6.3270     2.0620    -0.1720 hc         1 HCR       0.046200
     44 H22          6.3290     2.4410     1.5430 hc         1 HCR       0.046200
     45 H3           6.2390     0.0250     2.0930 h1         1 HCR       0.030700
     46 HO1          8.3190     0.9570     1.6940 ho         1 HCR       0.403000
     47 H41          6.4620    -0.3770    -0.9090 hc         1 HCR       0.060200
     48 H42          6.4520    -1.6580     0.2960 hc         1 HCR       0.060200
     49 H6           4.4960    -2.7720     0.2180 ha         1 HCR       0.119000
     50 H7           2.0600    -2.3660     0.9720 h1         1 HCR       0.033700
     51 HO2          2.4950    -3.8970    -0.6390 ho         1 HCR       0.400000
     52 H8           1.7760    -0.6830    -1.5100 hc         1 HCR       0.072700
     53 H14          0.2250    -0.9370     1.0850 hc         1 HCR       0.036700
     54 H151        -0.4920    -2.1510    -1.6000 hc         1 HCR       0.048700
     55 H152        -0.3880    -2.9620    -0.0540 hc         1 HCR       0.048700
     56 H161        -2.7240    -1.6710    -1.0760 hc         1 HCR       0.039700
     57 H162        -2.5090    -2.1590     0.5870 hc         1 HCR       0.039700
     58 H17         -1.9220    -0.0100     1.3050 hc         1 HCR       0.042700
     59 H20         -3.3840     0.6050    -1.2800 hc         1 HCR       0.046700
     60 H211        -2.4150     2.7150    -0.4730 hc         1 HCR       0.031700
     61 H212        -4.1170     2.7130    -0.0720 hc         1 HCR       0.031700
     62 H213        -2.9220     2.3670     1.1770 hc         1 HCR       0.031700
     63 H221        -4.4600    -0.9910     0.3460 hc         1 HCR       0.037200
     64 H222        -4.4010     0.2520     1.5700 hc         1 HCR       0.037200
     65 H231        -5.9490     1.6630     0.1900 hc         1 HCR       0.038200
     66 H232        -5.8830     0.4710    -1.0900 hc         1 HCR       0.038200
     67 H241        -6.8850    -1.2300     0.4480 hc         1 HCR       0.036200
     68 H242        -6.8860    -0.0580     1.7460 hc         1 HCR       0.036200
     69 H25         -8.4730     1.3670     0.4710 hc         1 HCR       0.043700
     70 H271        -7.9720     0.6950    -1.8600 hc         1 HCR       0.031367
     71 H272        -8.5060    -0.9500    -1.5220 hc         1 HCR       0.031367
     72 H273        -9.6630     0.3790    -1.5050 hc         1 HCR       0.031367
     73 H261        -9.3000    -0.2760     2.1410 hc         1 HCR       0.031367
     74 H262       -10.4480    -0.1230     0.8120 hc         1 HCR       0.031367
     75 H263        -9.3790    -1.5220     0.8970 hc         1 HCR       0.031367
@<TRIPOS>BOND
     1     1     2 1   
     2     1    30 1   
     3     1    31 1   
     4     1    32 1   
     5     2     3 1   
     6     2    18 1   
     7     2    21 1   
     8     3     4 1   
     9     3    33 1   
    10     3    34 1   
    11     4     5 1   
    12     4    35 1   
    13     4    36 1   
    14     5     6 1   
    15     5    17 1   
    16     5    37 1   
    17     6     7 1   
    18     6     8 1   
    19     6    13 1   
    20     7    38 1   
    21     7    39 1   
    22     7    40 1   
    23     8     9 1   
    24     8    41 1   
    25     8    42 1   
    26     9    10 1   
    27     9    43 1   
    28     9    44 1   
    29    10    11 1   
    30    10    12 1   
    31    10    45 1   
    32    11    46 1   
    33    12    13 1   
    34    12    47 1   
    35    12    48 1   
    36    13    14 2   
    37    14    15 1   
    38    14    49 1   
    39    15    16 1   
    40    15    17 1   
    41    15    50 1   
    42    16    51 1   
    43    17    18 1   
    44    17    52 1   
    45    18    19 1   
    46    18    53 1   
    47    19    20 1   
    48    19    54 1   
    49    19    55 1   
    50    20    21 1   
    51    20    56 1   
    52    20    57 1   
    53    21    22 1   
    54    21    58 1   
    55    22    23 1   
    56    22    24 1   
    57    22    59 1   
    58    23    60 1   
    59    23    61 1   
    60    23    62 1   
    61    24    25 1   
    62    24    63 1   
    63    24    64 1   
    64    25    26 1   
    65    25    65 1   
    66    25    66 1   
    67    26    27 1   
    68    26    67 1   
    69    26    68 1   
    70    27    28 1   
    71    27    29 1   
    72    27    69 1   
    73    28    70 1   
    74    28    71 1   
    75    28    72 1   
    76    29    73 1   
    77    29    74 1   
    78    29    75 1   
@<TRIPOS>SUBSTRUCTURE
     1 HCR         1 TEMP              0 ****  ****    0 ROOT
