@<TRIPOS>MOLECULE
HCS
   16    15     1     0     0
SMALL
No Charge or Current Charge


@<TRIPOS>ATOM
      1 N          -32.6370    20.8080    -1.2870 n8         1 HCS      -0.901800
      2 CA         -32.9730    22.0020    -0.4210 c3         1 HCS       0.020500
      3 CB         -31.6760    22.7450     0.0060 c3         1 HCS      -0.045400
      4 CG         -30.7150    21.9010     0.8710 c3         1 HCS       0.060700
      5 SD         -29.2310    22.8450     1.4500 sh         1 HCS      -0.457900
      6 C          -34.0740    23.0130    -0.9850 c          1 HCS       0.928600
      7 OXT        -35.2580    22.7590    -0.7760 o          1 HCS      -0.831800
      8 O          -33.7220    24.0120    -1.6080 o          1 HCS      -0.831800
      9 H          -33.4920    20.2660    -1.4580 hn         1 HCS       0.329300
     10 H2         -32.0290    20.1680    -0.7670 hn         1 HCS       0.329300
     11 HCA        -33.4050    21.5810     0.4980 h1         1 HCS      -0.001300
     12 HB2        -31.1440    23.1030    -0.8840 hc         1 HCS       0.061700
     13 HB3        -31.9570    23.6350     0.5840 hc         1 HCS       0.061700
     14 HG2        -31.2510    21.5300     1.7550 h1         1 HCS       0.046700
     15 HG3        -30.3630    21.0340     0.2970 h1         1 HCS       0.046700
     16 HD         -28.6640    21.8240     2.1390 hs         1 HCS       0.183800
@<TRIPOS>BOND
     1     1     2 1   
     2     1     9 1   
     3     1    10 1   
     4     2     3 1   
     5     2     6 1   
     6     2    11 1   
     7     3     4 1   
     8     3    12 1   
     9     3    13 1   
    10     4     5 1   
    11     4    14 1   
    12     4    15 1   
    13     5    16 1   
    14     6     7 1   
    15     6     8 1   
@<TRIPOS>SUBSTRUCTURE
     1 HCS         1 TEMP              0 ****  ****    0 ROOT
