@<TRIPOS>MOLECULE
HCS
   16    15     1     0     0
SMALL
bcc


@<TRIPOS>ATOM
      1 N          -32.7440    20.7530    -0.9530 n8         1 HCS      -0.901800
      2 CA         -32.9750    22.0070    -0.2510 c3         1 HCS       0.020500
      3 CB         -31.6530    22.7360    -0.0070 c3         1 HCS      -0.045400
      4 CG         -30.6870    21.9030     0.8190 c3         1 HCS       0.060700
      5 SD         -29.1570    22.8640     1.0960 sh         1 HCS      -0.457900
      6 C          -33.9760    22.9080    -1.0260 c          1 HCS       0.928600
      7 OXT        -34.6150    22.3740    -1.9550 o          1 HCS      -0.831800
      8 O          -34.0780    24.0850    -0.6290 o          1 HCS      -0.831800
      9 H          -33.5750    20.5470    -1.4940 hn         1 HCS       0.329300
     10 H2         -32.6220    19.9950    -0.2950 hn         1 HCS       0.329300
     11 HCA        -33.4380    21.8400     0.7370 h1         1 HCS      -0.001300
     12 HB2        -31.1920    22.9770    -0.9710 hc         1 HCS       0.061700
     13 HB3        -31.8530    23.6790     0.5030 hc         1 HCS       0.061700
     14 HG2        -31.1300    21.6490     1.7830 h1         1 HCS       0.046700
     15 HG3        -30.4320    20.9790     0.3020 h1         1 HCS       0.046700
     16 HD         -28.4640    21.9300     1.7560 hs         1 HCS       0.183800
@<TRIPOS>BOND
     1     1     2 1   
     2     1     9 1   
     3     1    10 1   
     4     2     3 1   
     5     2     6 1   
     6     2    11 1   
     7     3     4 1   
     8     3    12 1   
     9     3    13 1   
    10     4     5 1   
    11     4    14 1   
    12     4    15 1   
    13     5    16 1   
    14     6     7 1   
    15     6     8 1   
@<TRIPOS>SUBSTRUCTURE
     1 HCS         1 TEMP              0 ****  ****    0 ROOT
