@<TRIPOS>MOLECULE
HCT
   20    19     1     0     0
SMALL
bcc


@<TRIPOS>ATOM
      1 C1           3.0320    -0.6190    -0.2420 c          1 HCT       0.933600
      2 C2           1.6140    -1.0640     0.1370 c3         1 HCT      -0.153400
      3 C3           0.4950    -0.1300    -0.2970 c3         1 HCT      -0.165700
      4 C4          -0.8600    -0.6720     0.1780 c3         1 HCT      -0.033400
      5 C5          -2.0630     0.0530    -0.4040 c3         1 HCT      -0.188400
      6 C6          -3.4430    -0.5050    -0.0210 c          1 HCT       0.917600
      7 C7           0.7070     1.2940     0.2420 c          1 HCT       0.961600
      8 O1           3.1520     0.2680    -1.1120 o          1 HCT      -0.888800
      9 O2           3.9740    -1.2050     0.3380 o          1 HCT      -0.888800
     10 O3          -3.4920    -1.4650     0.7740 o          1 HCT      -0.896800
     11 O4          -4.4270     0.0620    -0.5450 o          1 HCT      -0.896800
     12 O5           0.4030     2.2540    -0.4990 o          1 HCT      -0.888300
     13 O6           1.1250     1.3910     1.4180 o          1 HCT      -0.888300
     14 H2           1.4460    -2.0570    -0.3030 hc         1 HCT      -0.006800
     15 H2A          1.5680    -1.2180     1.2180 hc         1 HCT      -0.006800
     16 H3           0.4740    -0.0850    -1.3900 hc         1 HCT       0.023700
     17 H4          -0.9240    -1.7340    -0.0840 hc         1 HCT       0.006700
     18 H4A         -0.8920    -0.6380     1.2710 hc         1 HCT       0.006700
     19 H5          -2.0350     1.1120    -0.1280 hc         1 HCT       0.027200
     20 H5A         -1.9900     0.0530    -1.4980 hc         1 HCT       0.027200
@<TRIPOS>BOND
     1     1     2 1   
     2     1     8 1   
     3     1     9 1   
     4     2     3 1   
     5     2    14 1   
     6     2    15 1   
     7     3     4 1   
     8     3     7 1   
     9     3    16 1   
    10     4     5 1   
    11     4    17 1   
    12     4    18 1   
    13     5     6 1   
    14     5    19 1   
    15     5    20 1   
    16     6    10 1   
    17     6    11 1   
    18     7    12 1   
    19     7    13 1   
@<TRIPOS>SUBSTRUCTURE
     1 HCT         1 TEMP              0 ****  ****    0 ROOT
