@<TRIPOS>MOLECULE
HCT
   20    19     1     0     0
SMALL
No Charge or Current Charge


@<TRIPOS>ATOM
      1 C1           2.9850    -0.6020    -0.6030 c          1 HCT       0.723000
      2 C2           1.6340    -1.1610    -0.0900 c3         1 HCT      -0.153400
      3 C3           0.5000    -0.0920    -0.2110 c3         1 HCT      -0.165700
      4 C4          -0.9040    -0.7130     0.0500 c3         1 HCT      -0.033400
      5 C5          -2.0880     0.2580    -0.1900 c3         1 HCT      -0.188400
      6 C6          -3.4290    -0.4760     0.0000 c          1 HCT       0.707000
      7 C7           0.7700     1.1450     0.6940 c          1 HCT       0.751000
      8 O1           3.2350    -0.6910    -1.7960 o          1 HCT      -0.783500
      9 O2           3.7480    -0.0860     0.2000 o          1 HCT      -0.783500
     10 O3          -3.9240    -0.5020     1.1170 o          1 HCT      -0.791500
     11 O4          -3.9300    -1.0310    -0.9650 o          1 HCT      -0.791500
     12 O5           0.9340     2.2300     0.1530 o          1 HCT      -0.783000
     13 O6           0.7750     1.0050     1.9100 o          1 HCT      -0.783000
     14 H2           1.3160    -1.9940    -0.7310 hc         1 HCT      -0.006800
     15 H2A          1.6970    -1.4330     0.9710 hc         1 HCT      -0.006800
     16 H3           0.5050     0.2520    -1.2530 hc         1 HCT       0.023700
     17 H4          -1.0330    -1.5830    -0.6070 hc         1 HCT       0.006700
     18 H4A         -0.9500    -1.0920     1.0790 hc         1 HCT       0.006700
     19 H5          -1.9860     1.0570     0.5540 hc         1 HCT       0.027200
     20 H5A         -1.9880     0.6030    -1.2270 hc         1 HCT       0.027200
@<TRIPOS>BOND
     1     1     2 1   
     2     1     8 1   
     3     1     9 1   
     4     2     3 1   
     5     2    14 1   
     6     2    15 1   
     7     3     4 1   
     8     3     7 1   
     9     3    16 1   
    10     4     5 1   
    11     4    17 1   
    12     4    18 1   
    13     5     6 1   
    14     5    19 1   
    15     5    20 1   
    16     6    10 1   
    17     6    11 1   
    18     7    12 1   
    19     7    13 1   
@<TRIPOS>SUBSTRUCTURE
     1 HCT         1 TEMP              0 ****  ****    0 ROOT
