@<TRIPOS>MOLECULE
HCY
   56    59     1     0     0
SMALL
No Charge or Current Charge


@<TRIPOS>ATOM
      1 C1          -3.3610     1.7730     0.0710 c6         1 HCY      -0.066400
      2 C2          -3.8890     1.5850    -1.3670 c6         1 HCY      -0.182400
      3 C3          -4.8530     0.4010    -1.4180 c          1 HCY       0.575300
      4 C4          -4.4080    -0.7990    -0.6720 ce         1 HCY      -0.319200
      5 C5          -3.4370    -0.7730     0.2740 c2         1 HCY      -0.036400
      6 C6          -2.8990    -2.0650     0.8710 c6         1 HCY      -0.050200
      7 C7          -1.4640    -2.2930     0.3470 c6         1 HCY      -0.071400
      8 C8          -0.5290    -1.0640     0.5850 c6         1 HCY      -0.042700
      9 C9          -1.1840     0.2810     0.0730 c6         1 HCY      -0.036700
     10 C10         -2.6480     0.4980     0.6560 c6         1 HCY      -0.002800
     11 C12          1.1960     1.2140    -0.4460 c6         1 HCY      -0.100400
     12 C11         -0.1990     1.5100     0.1920 c6         1 HCY       0.181300
     13 C13          1.8640    -0.1180     0.0510 c5         1 HCY      -0.016000
     14 C14          0.8330    -1.2770    -0.1440 c5         1 HCY      -0.067700
     15 C15          1.6720    -2.5300     0.2220 c5         1 HCY      -0.065400
     16 C16          3.0770    -2.2200    -0.3980 c5         1 HCY      -0.098400
     17 C17          3.0310    -0.7030    -0.8640 c5         1 HCY       0.078000
     18 C18          2.3470     0.0780     1.5360 c3         1 HCY      -0.095100
     19 C19         -2.6870     0.6550     2.2180 c3         1 HCY      -0.074100
     20 C20          4.4160     0.0270    -0.5760 c          1 HCY       0.548100
     21 C21          4.5560     1.4910    -1.0900 c3         1 HCY       0.061600
     22 O1          -5.8910     0.4290    -2.0640 o          1 HCY      -0.531100
     23 O2          -0.0440     1.9830     1.5340 oh         1 HCY      -0.657000
     24 O3           2.7350    -0.6400    -2.2790 oh         1 HCY      -0.658000
     25 O4           5.3790    -0.5100    -0.0330 o          1 HCY      -0.480100
     26 O5           4.7810     2.4500    -0.0280 oh         1 HCY      -0.634000
     27 H4          -4.9340    -1.7180    -0.9180 ha         1 HCY       0.195000
     28 H2C1        -4.3650     2.4860    -1.7760 hc         1 HCY       0.067200
     29 H2C2        -3.0300     1.3280    -1.9980 hc         1 HCY       0.067200
     30 H6C1        -2.9130    -2.0360     1.9670 hc         1 HCY       0.055700
     31 H6C2        -3.5320    -2.9160     0.5860 hc         1 HCY       0.055700
     32 H7C1        -1.0440    -3.1880     0.8260 hc         1 HCY       0.044700
     33 H7C2        -1.5150    -2.5150    -0.7290 hc         1 HCY       0.044700
     34 H8          -0.3410    -0.9910     1.6620 hc         1 HCY       0.066700
     35 H1C1        -2.7120     2.6560     0.1260 hc         1 HCY       0.051700
     36 H1C2        -4.2270     2.0230     0.7020 hc         1 HCY       0.051700
     37 H191        -3.7070     0.5120     2.5970 hc         1 HCY       0.041033
     38 H192        -2.0480    -0.0600     2.7450 hc         1 HCY       0.041033
     39 H193        -2.3790     1.6570     2.5370 hc         1 HCY       0.041033
     40 H9          -1.3180     0.1410    -1.0080 hc         1 HCY       0.049700
     41 H11         -0.6270     2.3280    -0.4040 h1         1 HCY       0.026700
     42 H14          0.5430    -1.3510    -1.2000 hc         1 HCY       0.059700
     43 H2           0.5290     2.7770     1.4870 ho         1 HCY       0.441000
     44 H121         1.0520     1.1670    -1.5330 hc         1 HCY       0.052700
     45 H122         1.8630     2.0680    -0.2770 hc         1 HCY       0.052700
     46 H181         1.5190     0.1160     2.2500 hc         1 HCY       0.047700
     47 H182         3.0040    -0.7280     1.8810 hc         1 HCY       0.047700
     48 H183         2.9130     1.0090     1.6520 hc         1 HCY       0.047700
     49 H151         1.7330    -2.6760     1.3070 hc         1 HCY       0.047700
     50 H152         1.2400    -3.4470    -0.1940 hc         1 HCY       0.047700
     51 H161         3.8480    -2.4190     0.3540 hc         1 HCY       0.059200
     52 H162         3.3020    -2.8940    -1.2330 hc         1 HCY       0.059200
     53 H3           3.2950    -1.3080    -2.7320 ho         1 HCY       0.448000
     54 H211         5.3950     1.5020    -1.7980 h1         1 HCY       0.043200
     55 H212         3.6570     1.7540    -1.6600 h1         1 HCY       0.043200
     56 H5           4.9230     3.3300    -0.4460 ho         1 HCY       0.444000
@<TRIPOS>BOND
     1     1     2 1   
     2     1    10 1   
     3     1    35 1   
     4     1    36 1   
     5     2     3 1   
     6     2    28 1   
     7     2    29 1   
     8     3     4 1   
     9     3    22 2   
    10     4     5 2   
    11     4    27 1   
    12     5     6 1   
    13     5    10 1   
    14     6     7 1   
    15     6    30 1   
    16     6    31 1   
    17     7     8 1   
    18     7    32 1   
    19     7    33 1   
    20     8     9 1   
    21     8    14 1   
    22     8    34 1   
    23     9    10 1   
    24     9    12 1   
    25     9    40 1   
    26    10    19 1   
    27    11    12 1   
    28    11    13 1   
    29    11    44 1   
    30    11    45 1   
    31    12    23 1   
    32    12    41 1   
    33    13    14 1   
    34    13    17 1   
    35    13    18 1   
    36    14    15 1   
    37    14    42 1   
    38    15    16 1   
    39    15    49 1   
    40    15    50 1   
    41    16    17 1   
    42    16    51 1   
    43    16    52 1   
    44    17    20 1   
    45    17    24 1   
    46    18    46 1   
    47    18    47 1   
    48    18    48 1   
    49    19    37 1   
    50    19    38 1   
    51    19    39 1   
    52    20    21 1   
    53    20    25 2   
    54    21    26 1   
    55    21    54 1   
    56    21    55 1   
    57    23    43 1   
    58    24    53 1   
    59    26    56 1   
@<TRIPOS>SUBSTRUCTURE
     1 HCY         1 TEMP              0 ****  ****    0 ROOT
