@<TRIPOS>MOLECULE
HCY
   56    59     1     0     0
SMALL
bcc


@<TRIPOS>ATOM
      1 C1          -3.3340     1.6960     0.1810 c6         1 HCY      -0.066400
      2 C2          -3.7410     1.6220    -1.2810 c6         1 HCY      -0.182400
      3 C3          -4.6110     0.4200    -1.5360 c          1 HCY       0.575300
      4 C4          -4.3050    -0.7700    -0.7460 ce         1 HCY      -0.269200
      5 C5          -3.3770    -0.7950     0.2260 c2         1 HCY      -0.036400
      6 C6          -2.8870    -2.0850     0.7940 c6         1 HCY      -0.050200
      7 C7          -1.4320    -2.2680     0.3420 c6         1 HCY      -0.071400
      8 C8          -0.5380    -1.0600     0.6280 c6         1 HCY      -0.042700
      9 C9          -1.1920     0.2460     0.1240 c6         1 HCY      -0.036700
     10 C10         -2.6340     0.4340     0.6980 c6         1 HCY      -0.002800
     11 C12          1.1020     1.2220    -0.3860 c6         1 HCY      -0.100400
     12 C11         -0.2850     1.4790     0.2230 c6         1 HCY       0.158100
     13 C13          1.7630    -0.0550     0.1250 c5         1 HCY      -0.016000
     14 C14          0.7930    -1.2270    -0.0910 c5         1 HCY      -0.067700
     15 C15          1.6450    -2.4620     0.1890 c5         1 HCY      -0.065400
     16 C16          3.0590    -2.0630    -0.2890 c5         1 HCY      -0.098400
     17 C17          2.9850    -0.5770    -0.7030 c5         1 HCY       0.054800
     18 C18          2.1780     0.0820     1.5970 c3         1 HCY      -0.095100
     19 C19         -2.6920     0.4950     2.2360 c3         1 HCY      -0.074100
     20 C20          4.2700     0.2000    -0.4190 c          1 HCY       0.548100
     21 C21          4.5290     1.4110    -1.2900 c3         1 HCY       0.038400
     22 O1          -5.4760     0.4120    -2.3970 o          1 HCY      -0.531100
     23 O2          -0.2220     1.9200     1.5610 oh         1 HCY      -0.594800
     24 O3           2.6660    -0.4330    -2.0710 oh         1 HCY      -0.595800
     25 O4           5.0460    -0.1140     0.4510 o          1 HCY      -0.480100
     26 O5           5.6170     2.1190    -0.7710 oh         1 HCY      -0.571800
     27 H4          -4.8080    -1.6880    -1.0340 ha         1 HCY       0.145000
     28 H2C1        -4.2650     2.5270    -1.5910 hc         1 HCY       0.067200
     29 H2C2        -2.8620     1.5390    -1.9310 hc         1 HCY       0.067200
     30 H6C1        -2.9420    -2.0830     1.8850 hc         1 HCY       0.055700
     31 H6C2        -3.4930    -2.9210     0.4410 hc         1 HCY       0.055700
     32 H7C1        -1.0180    -3.1600     0.8180 hc         1 HCY       0.044700
     33 H7C2        -1.4300    -2.4590    -0.7360 hc         1 HCY       0.044700
     34 H8          -0.3710    -1.0020     1.7090 hc         1 HCY       0.066700
     35 H1C1        -2.7130     2.5740     0.3600 hc         1 HCY       0.051700
     36 H1C2        -4.2390     1.8460     0.7800 hc         1 HCY       0.051700
     37 H191        -3.7070     0.2780     2.5760 hc         1 HCY       0.041033
     38 H192        -2.0220    -0.2040     2.7310 hc         1 HCY       0.041033
     39 H193        -2.4350     1.4920     2.5860 hc         1 HCY       0.041033
     40 H9          -1.3170     0.1010    -0.9590 hc         1 HCY       0.049700
     41 H11         -0.7420     2.2630    -0.3990 h1         1 HCY       0.026700
     42 H14          0.5470    -1.2400    -1.1610 hc         1 HCY       0.059700
     43 H2           0.3860     2.6650     1.6020 ho         1 HCY       0.402000
     44 H121         0.9730     1.1640    -1.4690 hc         1 HCY       0.052700
     45 H122         1.7280     2.1040    -0.2020 hc         1 HCY       0.052700
     46 H181         1.3110     0.1560     2.2460 hc         1 HCY       0.047700
     47 H182         2.7730    -0.7620     1.9450 hc         1 HCY       0.047700
     48 H183         2.7700     0.9850     1.7540 hc         1 HCY       0.047700
     49 H151         1.6490    -2.6990     1.2560 hc         1 HCY       0.047700
     50 H152         1.2740    -3.3460    -0.3280 hc         1 HCY       0.047700
     51 H161         3.7970    -2.2100     0.4980 hc         1 HCY       0.059200
     52 H162         3.3940    -2.6690    -1.1350 hc         1 HCY       0.059200
     53 H3           3.2240    -1.0260    -2.5860 ho         1 HCY       0.409000
     54 H211         4.7080     1.0580    -2.3140 h1         1 HCY       0.043200
     55 H212         3.6130     2.0160    -1.3370 h1         1 HCY       0.043200
     56 H5           5.8090     2.8410    -1.3760 ho         1 HCY       0.405000
@<TRIPOS>BOND
     1     1     2 1   
     2     1    10 1   
     3     1    35 1   
     4     1    36 1   
     5     2     3 1   
     6     2    28 1   
     7     2    29 1   
     8     3     4 1   
     9     3    22 2   
    10     4     5 2   
    11     4    27 1   
    12     5     6 1   
    13     5    10 1   
    14     6     7 1   
    15     6    30 1   
    16     6    31 1   
    17     7     8 1   
    18     7    32 1   
    19     7    33 1   
    20     8     9 1   
    21     8    14 1   
    22     8    34 1   
    23     9    10 1   
    24     9    12 1   
    25     9    40 1   
    26    10    19 1   
    27    11    12 1   
    28    11    13 1   
    29    11    44 1   
    30    11    45 1   
    31    12    23 1   
    32    12    41 1   
    33    13    14 1   
    34    13    17 1   
    35    13    18 1   
    36    14    15 1   
    37    14    42 1   
    38    15    16 1   
    39    15    49 1   
    40    15    50 1   
    41    16    17 1   
    42    16    51 1   
    43    16    52 1   
    44    17    20 1   
    45    17    24 1   
    46    18    46 1   
    47    18    47 1   
    48    18    48 1   
    49    19    37 1   
    50    19    38 1   
    51    19    39 1   
    52    20    21 1   
    53    20    25 2   
    54    21    26 1   
    55    21    54 1   
    56    21    55 1   
    57    23    43 1   
    58    24    53 1   
    59    26    56 1   
@<TRIPOS>SUBSTRUCTURE
     1 HCY         1 TEMP              0 ****  ****    0 ROOT
