@<TRIPOS>MOLECULE
HCZ
   25    26     1     0     0
SMALL
bcc


@<TRIPOS>ATOM
      1 N01          3.3850     0.6480     1.2520 n8         1 HCZ      -0.907700
      2 S02          2.6320     1.0360    -0.1580 sy         1 HCZ       1.298200
      3 O03          2.2180     2.4320    -0.1970 o          1 HCZ      -0.612300
      4 O04          3.4770     0.5390    -1.2300 o          1 HCZ      -0.612300
      5 C05          1.1500     0.0820    -0.0510 ca         1 HCZ      -0.346500
      6 C06         -0.0600     0.7490    -0.0000 ca         1 HCZ       0.125000
      7 C07         -1.2510     0.0510     0.0730 ca         1 HCZ      -0.421500
      8 C08         -1.2790    -1.3590     0.0720 ca         1 HCZ       0.327600
      9 C09         -0.0390    -2.0250     0.0050 ca         1 HCZ      -0.251000
     10 C10          1.1380    -1.3220    -0.0490 ca         1 HCZ       0.214400
     11 CL11         2.6010    -2.2230    -0.1080 cl         1 HCZ      -0.055400
     12 N12         -2.4220    -2.0620     0.1040 nu         1 HCZ      -0.807600
     13 C13         -3.7280    -1.4630     0.2830 c6         1 HCZ       0.470000
     14 N14         -3.8380    -0.1980    -0.4100 n7         1 HCZ      -0.792100
     15 S15         -2.7680     0.9380     0.1420 sy         1 HCZ       1.303200
     16 O16         -3.0990     1.2020     1.5300 o          1 HCZ      -0.589800
     17 O17         -2.7410     2.0370    -0.8040 o          1 HCZ      -0.589800
     18 HN01         3.0280     1.1620     2.0500 hn         1 HCZ       0.425300
     19 HN0A         4.3940     0.7290     1.1840 hn         1 HCZ       0.425300
     20 H06         -0.0750     1.8310    -0.0150 ha         1 HCZ       0.178000
     21 H09         -0.0220    -3.1070    -0.0010 ha         1 HCZ       0.150000
     22 HN12        -2.3670    -3.0680     0.0950 hn         1 HCZ       0.459800
     23 H13         -4.4750    -2.1420    -0.1170 h2         1 HCZ       0.088200
     24 H13A        -3.9510    -1.3040     1.3400 h2         1 HCZ       0.088200
     25 HN14        -3.8120    -0.2810    -1.4230 hn         1 HCZ       0.433800
@<TRIPOS>BOND
     1     1     2 1   
     2     1    18 1   
     3     1    19 1   
     4     2     3 2   
     5     2     4 2   
     6     2     5 1   
     7     5     6 ar  
     8     5    10 ar  
     9     6     7 ar  
    10     6    20 1   
    11     7     8 ar  
    12     7    15 1   
    13     8     9 ar  
    14     8    12 1   
    15     9    10 ar  
    16     9    21 1   
    17    10    11 1   
    18    12    13 1   
    19    12    22 1   
    20    13    14 1   
    21    13    23 1   
    22    13    24 1   
    23    14    15 1   
    24    14    25 1   
    25    15    16 2   
    26    15    17 2   
@<TRIPOS>SUBSTRUCTURE
     1 HCZ         1 TEMP              0 ****  ****    0 ROOT
