@<TRIPOS>MOLECULE
HCZ
   25    26     1     0     0
SMALL
No Charge or Current Charge


@<TRIPOS>ATOM
      1 N01          3.2390     0.6480     1.4820 n8         1 HCZ      -1.018100
      2 S02          2.6220     1.0450     0.0290 sy         1 HCZ       1.156600
      3 O03          2.3410     2.4730     0.1450 o          1 HCZ      -0.541500
      4 O04          3.6100     0.5290    -0.9140 o          1 HCZ      -0.541500
      5 C05          1.1090     0.1070    -0.0400 ca         1 HCZ      -0.346500
      6 C06         -0.1140     0.8030     0.0090 ca         1 HCZ       0.143000
      7 C07         -1.3140     0.0810    -0.0510 ca         1 HCZ      -0.421500
      8 C08         -1.3120    -1.2930    -0.1510 ca         1 HCZ       0.466000
      9 C09         -0.1110    -1.9930    -0.1980 ca         1 HCZ      -0.233000
     10 C10          1.1060    -1.3010    -0.1400 ca         1 HCZ       0.306000
     11 Cl11         2.5820    -2.2700    -0.1770 cl         1 HCZ      -0.147000
     12 N12         -2.5210    -1.9500    -0.2150 nu         1 HCZ      -1.001200
     13 C13         -3.6680    -1.4640     0.5000 c6         1 HCZ       0.470000
     14 N14         -3.9270    -0.3310    -0.3130 n7         1 HCZ      -0.847300
     15 S15         -2.8670     0.9070    -0.0040 sy         1 HCZ       1.161600
     16 O16         -3.1330     1.3690     1.3600 o          1 HCZ      -0.519000
     17 O17         -2.9530     1.8190    -1.1450 o          1 HCZ      -0.519000
     18 HN01         3.4700     1.5720     1.8390 hn         1 HCZ       0.480500
     19 HN0A         4.1500     0.2960     1.1960 hn         1 HCZ       0.480500
     20 H06         -0.1390     1.8910     0.0880 ha         1 HCZ       0.160000
     21 H09         -0.1140    -3.0740    -0.2760 ha         1 HCZ       0.132000
     22 HN12        -2.4320    -2.9670    -0.2650 hn         1 HCZ       0.515000
     23 H13         -4.5170    -2.1660     0.4470 h2         1 HCZ       0.088200
     24 H13A        -3.4710    -1.1910     1.5520 h2         1 HCZ       0.088200
     25 HN14        -3.5430    -0.6570    -1.1910 hn         1 HCZ       0.489000
@<TRIPOS>BOND
     1     1     2 1   
     2     1    18 1   
     3     1    19 1   
     4     2     3 2   
     5     2     4 2   
     6     2     5 1   
     7     5     6 ar  
     8     5    10 ar  
     9     6     7 ar  
    10     6    20 1   
    11     7     8 ar  
    12     7    15 1   
    13     8     9 ar  
    14     8    12 1   
    15     9    10 ar  
    16     9    21 1   
    17    10    11 1   
    18    12    13 1   
    19    12    22 1   
    20    13    14 1   
    21    13    23 1   
    22    13    24 1   
    23    14    15 1   
    24    14    25 1   
    25    15    16 2   
    26    15    17 2   
@<TRIPOS>SUBSTRUCTURE
     1 HCZ         1 TEMP              0 ****  ****    0 ROOT
