@<TRIPOS>MOLECULE
HD0
   29    30     1     0     0
SMALL
bcc


@<TRIPOS>ATOM
      1 C            6.4120    -4.6160    19.0700 c          1 HD0       0.936600
      2 NAS          4.0880    -5.3600    19.4000 n          1 HD0      -0.463400
      3 O            7.2480    -3.7550    19.3870 o          1 HD0      -0.812300
      4 CA           4.9160    -4.1890    19.1840 c3         1 HD0      -0.044300
      5 CB           4.6250    -3.0880    20.2120 c3         1 HD0       0.015900
      6 CG           4.7060    -1.7120    19.6410 cc         1 HD0      -0.172900
      7 N            2.5140    -8.1800    18.0730 n8         1 HD0      -0.858800
      8 CAT          2.5630    -7.1060    19.0410 c5         1 HD0       0.070500
      9 CAU          3.2500    -5.8880    18.4500 c          1 HD0       0.723500
     10 OAV          3.0750    -5.4360    17.3450 o          1 HD0      -0.598500
     11 CAW          3.4120    -7.4230    20.2650 c5         1 HD0      -0.179400
     12 CAX          4.2270    -6.1790    20.4990 c          1 HD0       0.724500
     13 OAY          4.9090    -5.9190    21.4590 o          1 HD0      -0.581500
     14 ND1          3.9490    -0.6800    20.1230 na         1 HD0      -0.317900
     15 CD2          5.4330    -1.1500    18.6240 cd         1 HD0       0.313200
     16 CE1          4.2340     0.4260    19.4050 cc         1 HD0       0.348400
     17 NE2          5.1280     0.1780    18.4850 nd         1 HD0      -0.691000
     18 OXT          6.6120    -5.7590    18.6280 o          1 HD0      -0.812300
     19 HA           4.6270    -3.8140    18.1980 h1         1 HD0       0.068700
     20 HB           3.6140    -3.2260    20.6040 hc         1 HD0       0.044200
     21 HBA          5.2980    -3.1810    21.0670 hc         1 HD0       0.044200
     22 H2           2.0400    -8.9730    18.4860 hn         1 HD0       0.339300
     23 H            1.9430    -7.8980    17.2850 hn         1 HD0       0.339300
     24 HAT          1.5720    -6.7600    19.3740 h1         1 HD0       0.026700
     25 HAW          2.8410    -7.6930    21.1520 hc         1 HD0       0.078700
     26 HAWA         4.1040    -8.2420    20.0470 hc         1 HD0       0.078700
     27 HND1         3.2810    -0.7390    20.8780 hn         1 HD0       0.281700
     28 HD2          6.1620    -1.6340    17.9940 h4         1 HD0       0.063100
     29 HE1          3.7590     1.3760    19.5950 h5         1 HD0       0.031100
@<TRIPOS>BOND
     1     1     3 1   
     2     1     4 1   
     3     1    18 1   
     4     2     4 1   
     5     2     9 1   
     6     2    12 1   
     7     4     5 1   
     8     4    19 1   
     9     5     6 1   
    10     5    20 1   
    11     5    21 1   
    12     6    14 1   
    13     6    15 2   
    14     7     8 1   
    15     7    22 1   
    16     7    23 1   
    17     8     9 1   
    18     8    11 1   
    19     8    24 1   
    20     9    10 2   
    21    11    12 1   
    22    11    25 1   
    23    11    26 1   
    24    12    13 2   
    25    14    16 1   
    26    14    27 1   
    27    15    17 1   
    28    15    28 1   
    29    16    17 2   
    30    16    29 1   
@<TRIPOS>SUBSTRUCTURE
     1 HD0         1 TEMP              0 ****  ****    0 ROOT
