@<TRIPOS>MOLECULE
HD0
   29    30     1     0     0
SMALL
No Charge or Current Charge


@<TRIPOS>ATOM
      1 C            6.4340    -4.2730    19.4930 c          1 HD0       0.936600
      2 NAS          4.1660    -5.5090    19.3530 n          1 HD0      -0.463400
      3 O            6.9260    -3.5520    20.3540 o          1 HD0      -0.812300
      4 CA           4.8980    -4.2020    19.1750 c3         1 HD0      -0.044300
      5 CB           4.1540    -3.0490    19.9060 c3         1 HD0       0.015900
      6 CG           4.5500    -1.6520    19.4860 cc         1 HD0      -0.172900
      7 N            2.1450    -8.3260    18.2070 n8         1 HD0      -0.858800
      8 CAT          2.5810    -7.2270    19.1180 c5         1 HD0       0.070500
      9 CAU          3.1780    -5.9190    18.4690 c          1 HD0       0.723500
     10 OAV          2.8630    -5.3430    17.4330 o          1 HD0      -0.598500
     11 CAW          3.7280    -7.6770    20.0590 c5         1 HD0      -0.179400
     12 CAX          4.4480    -6.3710    20.4040 c          1 HD0       0.724500
     13 OAY          4.9820    -6.0410    21.4530 o          1 HD0      -0.581500
     14 ND1          4.1470    -0.5040    20.1340 na         1 HD0      -0.317900
     15 CD2          5.3300    -1.2130    18.4390 cd         1 HD0       0.313200
     16 CE1          4.6870     0.5720    19.4740 cc         1 HD0       0.348400
     17 NE2          5.4070     0.1690    18.4400 nd         1 HD0      -0.691000
     18 OXT          7.1070    -5.0640    18.8400 o          1 HD0      -0.812300
     19 HA           4.8630    -3.9650    18.1040 h1         1 HD0       0.068700
     20 HB           3.0790    -3.1610    19.7220 hc         1 HD0       0.044200
     21 HBA          4.2850    -3.1640    20.9890 hc         1 HD0       0.044200
     22 H2           1.6990    -9.0710    18.7530 hn         1 HD0       0.339300
     23 H            1.4020    -7.9850    17.5860 hn         1 HD0       0.339300
     24 HAT          1.7060    -6.9170    19.7070 h1         1 HD0       0.026700
     25 HAW          3.4280    -8.2240    20.9580 hc         1 HD0       0.078700
     26 HAWA         4.4370    -8.2850    19.4860 hc         1 HD0       0.078700
     27 HND1         3.5570    -0.4480    20.9540 hn         1 HD0       0.281700
     28 HD2          5.8340    -1.8090    17.6870 h4         1 HD0       0.063100
     29 HE1          4.5190     1.5960    19.7880 h5         1 HD0       0.031100
@<TRIPOS>BOND
     1     1     3 1   
     2     1     4 1   
     3     1    18 1   
     4     2     4 1   
     5     2     9 1   
     6     2    12 1   
     7     4     5 1   
     8     4    19 1   
     9     5     6 1   
    10     5    20 1   
    11     5    21 1   
    12     6    14 1   
    13     6    15 2   
    14     7     8 1   
    15     7    22 1   
    16     7    23 1   
    17     8     9 1   
    18     8    11 1   
    19     8    24 1   
    20     9    10 2   
    21    11    12 1   
    22    11    25 1   
    23    11    26 1   
    24    12    13 2   
    25    14    16 1   
    26    14    27 1   
    27    15    17 1   
    28    15    28 1   
    29    16    17 2   
    30    16    29 1   
@<TRIPOS>SUBSTRUCTURE
     1 HD0         1 TEMP              0 ****  ****    0 ROOT
