@<TRIPOS>MOLECULE
HD1
   67    71     1     0     0
SMALL
abcg2


@<TRIPOS>ATOM
      1 O1           1.4090    -1.7140    -1.0200 o          1 HD1      -0.599100
      2 C14          1.1860    -0.5340    -0.7680 c          1 HD1       0.626700
      3 N4           2.1720     0.3520    -0.5330 ns         1 HD1      -0.503900
      4 C15          3.5790     0.0210    -0.6280 c6         1 HD1       0.121700
      5 C20          4.3970     1.2700    -0.9830 c6         1 HD1      -0.073200
      6 C19          4.3720     2.2830     0.1660 c6         1 HD1      -0.071900
      7 C21          5.8430     0.8430    -1.2480 c6         1 HD1      -0.078900
      8 C22          6.4390     0.2040     0.0040 c6         1 HD1       0.178000
      9 C23          6.3960     1.2160     1.1530 c6         1 HD1      -0.099400
     10 C18          4.9500     1.6410     1.4280 c6         1 HD1      -0.056700
     11 C17          4.1160     0.4130     1.8010 c6         1 HD1      -0.071900
     12 O2           7.7690    -0.1650    -0.3090 oh         1 HD1      -0.655000
     13 C24          5.5970    -1.0180     0.3830 c6         1 HD1      -0.078900
     14 C16          4.1490    -0.6000     0.6570 c6         1 HD1      -0.073200
     15 C5          -0.1970    -0.0140    -0.7140 ca         1 HD1      -0.266600
     16 C6          -0.5070     1.3340    -0.9160 ca         1 HD1      -0.002000
     17 C7          -1.7950     1.8020    -0.8770 ca         1 HD1      -0.259000
     18 C8          -2.8260     0.8770    -0.6100 ca         1 HD1       0.665900
     19 N2          -4.1320     1.2340    -0.4930 nh         1 HD1      -0.773300
     20 C12         -5.1740     0.2220    -0.4380 c6         1 HD1       0.219300
     21 C11         -6.3540     0.7090     0.3810 c6         1 HD1       0.150300
     22 N3          -6.8570     1.9640    -0.1320 n3         1 HD1      -0.713600
     23 C13         -8.0480     2.3960     0.5630 c3         1 HD1       0.152100
     24 C10         -5.8140     2.9630    -0.0800 c6         1 HD1       0.150300
     25 C9          -4.6100     2.5410    -0.9040 c6         1 HD1       0.219300
     26 N1          -2.5390    -0.4170    -0.4530 nb         1 HD1      -0.800000
     27 C4          -1.2990    -0.8610    -0.5080 ca         1 HD1       0.566300
     28 S1          -1.0840    -2.5990    -0.2940 ss         1 HD1      -0.282300
     29 C3          -2.7600    -3.1180     0.1770 c3         1 HD1       0.024600
     30 C2          -2.7320    -4.6110     0.4800 c3         1 HD1      -0.069400
     31 C1          -4.1120    -5.1140     0.8830 c3         1 HD1      -0.087100
     32 H4           1.9300     1.2680    -0.1940 hn         1 HD1       0.310500
     33 H15          3.6850    -0.7040    -1.4400 h1         1 HD1       0.078700
     34 H20          3.9850     1.7210    -1.8890 hc         1 HD1       0.066700
     35 H16          3.5620    -1.4840     0.9200 hc         1 HD1       0.066700
     36 H191         4.9550     3.1640    -0.1170 hc         1 HD1       0.040450
     37 H192         3.3580     2.6510     0.3580 hc         1 HD1       0.040450
     38 H211         5.8810     0.1340    -2.0820 hc         1 HD1       0.053200
     39 H212         6.4380     1.7140    -1.5420 hc         1 HD1       0.053200
     40 H18          4.9340     2.3630     2.2480 hc         1 HD1       0.051700
     41 H231         6.8330     0.7710     2.0540 hc         1 HD1       0.045200
     42 H232         7.0050     2.0880     0.8940 hc         1 HD1       0.045200
     43 H2           8.1670    -0.5500     0.4790 ho         1 HD1       0.441000
     44 H241         5.6360    -1.7580    -0.4230 hc         1 HD1       0.053200
     45 H242         6.0170    -1.4980     1.2740 hc         1 HD1       0.053200
     46 H171         4.5090    -0.0470     2.7130 hc         1 HD1       0.040450
     47 H172         3.0870     0.7080     2.0280 hc         1 HD1       0.040450
     48 H6           0.2770     2.0470    -1.1390 ha         1 HD1       0.109000
     49 H7          -1.9790     2.8490    -1.0560 ha         1 HD1       0.123000
     50 H121        -5.5080    -0.0250    -1.4540 h1         1 HD1       0.057200
     51 H122        -4.7760    -0.6850     0.0060 h1         1 HD1       0.057200
     52 H91C        -3.8390     3.2940    -0.7680 h1         1 HD1       0.057200
     53 H92C        -4.8770     2.5280    -1.9680 h1         1 HD1       0.057200
     54 H111        -7.1420    -0.0450     0.3280 h1         1 HD1       0.041450
     55 H112        -6.0510     0.7900     1.4390 h1         1 HD1       0.041450
     56 H131        -7.8840     2.5870     1.6350 h1         1 HD1       0.033367
     57 H132        -8.4280     3.3160     0.1160 h1         1 HD1       0.033367
     58 H133        -8.8260     1.6360     0.4760 h1         1 HD1       0.033367
     59 H101        -6.1900     3.9050    -0.4860 h1         1 HD1       0.041450
     60 H102        -5.4880     3.1640     0.9560 h1         1 HD1       0.041450
     61 H31C        -3.0880    -2.5540     1.0510 h1         1 HD1       0.068200
     62 H32C        -3.4560    -2.9060    -0.6350 h1         1 HD1       0.068200
     63 H21C        -2.3810    -5.1620    -0.3960 hc         1 HD1       0.049700
     64 H22C        -2.0180    -4.8140     1.2820 hc         1 HD1       0.049700
     65 H11C        -4.4790    -4.5880     1.7650 hc         1 HD1       0.032367
     66 H12C        -4.8360    -4.9640     0.0810 hc         1 HD1       0.032367
     67 H13C        -4.0880    -6.1790     1.1150 hc         1 HD1       0.032367
@<TRIPOS>BOND
     1     1     2 2   
     2     2     3 1   
     3     2    15 1   
     4     3     4 1   
     5     3    32 1   
     6     4     5 1   
     7     4    14 1   
     8     4    33 1   
     9     5     6 1   
    10     5     7 1   
    11     5    34 1   
    12     6    10 1   
    13     6    36 1   
    14     6    37 1   
    15     7     8 1   
    16     7    38 1   
    17     7    39 1   
    18     8     9 1   
    19     8    12 1   
    20     8    13 1   
    21     9    10 1   
    22     9    41 1   
    23     9    42 1   
    24    10    11 1   
    25    10    40 1   
    26    11    14 1   
    27    11    46 1   
    28    11    47 1   
    29    12    43 1   
    30    13    14 1   
    31    13    44 1   
    32    13    45 1   
    33    14    35 1   
    34    15    16 ar  
    35    15    27 ar  
    36    16    17 ar  
    37    16    48 1   
    38    17    18 ar  
    39    17    49 1   
    40    18    19 1   
    41    18    26 ar  
    42    19    20 1   
    43    19    25 1   
    44    20    21 1   
    45    20    50 1   
    46    20    51 1   
    47    21    22 1   
    48    21    54 1   
    49    21    55 1   
    50    22    23 1   
    51    22    24 1   
    52    23    56 1   
    53    23    57 1   
    54    23    58 1   
    55    24    25 1   
    56    24    59 1   
    57    24    60 1   
    58    25    52 1   
    59    25    53 1   
    60    26    27 ar  
    61    27    28 1   
    62    28    29 1   
    63    29    30 1   
    64    29    61 1   
    65    29    62 1   
    66    30    31 1   
    67    30    63 1   
    68    30    64 1   
    69    31    65 1   
    70    31    66 1   
    71    31    67 1   
@<TRIPOS>SUBSTRUCTURE
     1 HD1         1 TEMP              0 ****  ****    0 ROOT
