@<TRIPOS>MOLECULE
HD1
   67    71     1     0     0
SMALL
No Charge or Current Charge


@<TRIPOS>ATOM
      1 O1           1.4530    -1.7240    -1.3860 o          1 HD1      -0.599100
      2 C14          1.2090    -0.5920    -1.0000 c          1 HD1       0.626700
      3 N4           2.2170     0.3130    -0.7640 ns         1 HD1      -0.503900
      4 C15          3.6570     0.0370    -0.8580 c6         1 HD1       0.121700
      5 C20          4.4720     1.3550    -1.0500 c6         1 HD1      -0.073200
      6 C19          4.3380     2.2770     0.2020 c6         1 HD1      -0.071900
      7 C21          5.9750     0.9990    -1.2560 c6         1 HD1      -0.078900
      8 C22          6.5210     0.2510    -0.0030 c6         1 HD1       0.178000
      9 C23          6.3700     1.1690     1.2460 c6         1 HD1      -0.099400
     10 C18          4.8700     1.5320     1.4600 c6         1 HD1      -0.056700
     11 C17          4.0500     0.2280     1.6730 c6         1 HD1      -0.071900
     12 O2           7.8970    -0.0770    -0.2000 oh         1 HD1      -0.655000
     13 C24          5.6900    -1.0490     0.2150 c6         1 HD1      -0.078900
     14 C16          4.1880    -0.6900     0.4200 c6         1 HD1      -0.073200
     15 C5          -0.1770    -0.0470    -0.8470 ca         1 HD1      -0.266600
     16 C6          -0.4410     1.3030    -1.1530 ca         1 HD1      -0.002000
     17 C7          -1.7500     1.7730    -1.0180 ca         1 HD1      -0.259000
     18 C8          -2.7530     0.8970    -0.5820 ca         1 HD1       0.665900
     19 N2          -4.0940     1.2860    -0.4090 nh         1 HD1      -0.773300
     20 C12         -5.2150     0.3640    -0.7990 c6         1 HD1       0.219300
     21 C11         -6.5620     0.7040    -0.0840 c6         1 HD1       0.150300
     22 N3          -6.9550     2.1370    -0.2320 n3         1 HD1      -0.713600
     23 C13         -8.2560     2.4400     0.4010 c3         1 HD1       0.152100
     24 C10         -5.8520     3.0100     0.2700 c6         1 HD1       0.150300
     25 C9          -4.4850     2.7320    -0.4350 c6         1 HD1       0.219300
     26 N1          -2.5050    -0.3800    -0.2810 nb         1 HD1      -0.800000
     27 C4          -1.2510    -0.8530    -0.4110 ca         1 HD1       0.566300
     28 S1          -1.0270    -2.5600     0.1160 ss         1 HD1      -0.282300
     29 C3          -2.7370    -3.1750     0.4650 c3         1 HD1       0.024600
     30 C2          -2.7000    -4.6520     0.9030 c3         1 HD1      -0.069400
     31 C1          -4.0990    -5.2210     1.2070 c3         1 HD1      -0.087100
     32 H4           1.9300     1.2290    -0.4460 hn         1 HD1       0.310500
     33 H15          3.8190    -0.6100    -1.7340 h1         1 HD1       0.078700
     34 H20          4.1030     1.8870    -1.9380 hc         1 HD1       0.066700
     35 H16          3.6170    -1.6150     0.5790 hc         1 HD1       0.066700
     36 H191         4.9040     3.2060     0.0480 hc         1 HD1       0.040450
     37 H192         3.2930     2.5810     0.3540 hc         1 HD1       0.040450
     38 H211         6.0940     0.3760    -2.1530 hc         1 HD1       0.053200
     39 H212         6.5570     1.9140    -1.4360 hc         1 HD1       0.053200
     40 H18          4.7700     2.1800     2.3420 hc         1 HD1       0.051700
     41 H231         6.7630     0.6680     2.1420 hc         1 HD1       0.045200
     42 H232         6.9620     2.0860     1.1190 hc         1 HD1       0.045200
     43 H2           8.2110    -0.4820     0.6370 ho         1 HD1       0.441000
     44 H241         5.8020    -1.7220    -0.6470 hc         1 HD1       0.053200
     45 H242         6.0650    -1.6010     1.0890 hc         1 HD1       0.053200
     46 H171         4.4070    -0.3000     2.5680 hc         1 HD1       0.040450
     47 H172         2.9950     0.4680     1.8620 hc         1 HD1       0.040450
     48 H6           0.3360     1.9730    -1.5160 ha         1 HD1       0.109000
     49 H7          -1.9740     2.8040    -1.2690 ha         1 HD1       0.123000
     50 H121        -5.3740     0.4210    -1.8860 h1         1 HD1       0.057200
     51 H122        -4.9770    -0.6830    -0.5660 h1         1 HD1       0.057200
     52 H91C        -3.7250     3.3450     0.0700 h1         1 HD1       0.057200
     53 H92C        -4.5500     3.0800    -1.4770 h1         1 HD1       0.057200
     54 H111        -7.3460     0.0500    -0.4920 h1         1 HD1       0.041450
     55 H112        -6.4600     0.4510     0.9820 h1         1 HD1       0.041450
     56 H131        -8.2180     2.2620     1.4840 h1         1 HD1       0.033367
     57 H132        -8.5330     3.4900     0.2340 h1         1 HD1       0.033367
     58 H133        -9.0490     1.8100    -0.0230 h1         1 HD1       0.033367
     59 H101        -6.1100     4.0700     0.1240 h1         1 HD1       0.041450
     60 H102        -5.7200     2.8610     1.3520 h1         1 HD1       0.041450
     61 H31C        -3.1840    -2.5640     1.2590 h1         1 HD1       0.068200
     62 H32C        -3.3470    -3.0720    -0.4420 h1         1 HD1       0.068200
     63 H21C        -2.2320    -5.2520     0.1130 hc         1 HD1       0.049700
     64 H22C        -2.0710    -4.7490     1.7970 hc         1 HD1       0.049700
     65 H11C        -4.5790    -4.6580     2.0170 hc         1 HD1       0.032367
     66 H12C        -4.7410    -5.1670     0.3200 hc         1 HD1       0.032367
     67 H13C        -4.0260    -6.2710     1.5150 hc         1 HD1       0.032367
@<TRIPOS>BOND
     1     1     2 2   
     2     2     3 1   
     3     2    15 1   
     4     3     4 1   
     5     3    32 1   
     6     4     5 1   
     7     4    14 1   
     8     4    33 1   
     9     5     6 1   
    10     5     7 1   
    11     5    34 1   
    12     6    10 1   
    13     6    36 1   
    14     6    37 1   
    15     7     8 1   
    16     7    38 1   
    17     7    39 1   
    18     8     9 1   
    19     8    12 1   
    20     8    13 1   
    21     9    10 1   
    22     9    41 1   
    23     9    42 1   
    24    10    11 1   
    25    10    40 1   
    26    11    14 1   
    27    11    46 1   
    28    11    47 1   
    29    12    43 1   
    30    13    14 1   
    31    13    44 1   
    32    13    45 1   
    33    14    35 1   
    34    15    16 ar  
    35    15    27 ar  
    36    16    17 ar  
    37    16    48 1   
    38    17    18 ar  
    39    17    49 1   
    40    18    19 1   
    41    18    26 ar  
    42    19    20 1   
    43    19    25 1   
    44    20    21 1   
    45    20    50 1   
    46    20    51 1   
    47    21    22 1   
    48    21    54 1   
    49    21    55 1   
    50    22    23 1   
    51    22    24 1   
    52    23    56 1   
    53    23    57 1   
    54    23    58 1   
    55    24    25 1   
    56    24    59 1   
    57    24    60 1   
    58    25    52 1   
    59    25    53 1   
    60    26    27 ar  
    61    27    28 1   
    62    28    29 1   
    63    29    30 1   
    64    29    61 1   
    65    29    62 1   
    66    30    31 1   
    67    30    63 1   
    68    30    64 1   
    69    31    65 1   
    70    31    66 1   
    71    31    67 1   
@<TRIPOS>SUBSTRUCTURE
     1 HD1         1 TEMP              0 ****  ****    0 ROOT
