@<TRIPOS>MOLECULE
HD2
   65    70     1     0     0
SMALL
No Charge or Current Charge


@<TRIPOS>ATOM
      1 C1           0.9360     0.7350     0.1800 ca         1 HD2       0.169900
      2 C2           0.5980    -0.6250     0.0190 ca         1 HD2      -0.331600
      3 C3           1.6710    -1.5500    -0.1290 ca         1 HD2       0.238300
      4 N4           2.9450    -1.0940    -0.0870 nb         1 HD2      -0.266000
      5 C5           3.1540     0.2160     0.0870 ca         1 HD2       0.400900
      6 N6           2.2070     1.1590     0.2120 nb         1 HD2      -0.253000
      7 N7           4.4990     0.5840     0.0920 nu         1 HD2      -0.917100
      8 C8           1.4350    -3.0580    -0.3710 c5         1 HD2      -0.130000
      9 C9           1.5460    -3.7990     0.9890 c5         1 HD2      -0.068900
     10 C10          1.7450    -5.2850     0.5520 c5         1 HD2      -0.079400
     11 C11          2.2560    -5.2170    -0.9260 c5         1 HD2      -0.079400
     12 C12          2.6240    -3.7240    -1.1250 c5         1 HD2      -0.068900
     13 C13         -0.8520    -1.0190     0.0330 c          1 HD2       0.632700
     14 O14         -1.2570    -2.0960     0.4420 o          1 HD2      -0.602100
     15 N15         -1.7250    -0.0420    -0.3770 ns         1 HD2      -0.505900
     16 C16         -3.1910    -0.1370    -0.3650 c6         1 HD2       0.120700
     17 C17         -3.8290     0.8830    -1.3610 c6         1 HD2      -0.072200
     18 C18         -3.5320     2.3500    -0.9180 c6         1 HD2      -0.070900
     19 C19         -4.1170     2.5960     0.5020 c6         1 HD2      -0.056700
     20 C20         -3.4720     1.5990     1.5070 c6         1 HD2      -0.070900
     21 C21         -3.7730     0.1350     1.0600 c6         1 HD2      -0.072200
     22 C22         -5.3150    -0.0810     1.0310 c6         1 HD2      -0.079400
     23 C23         -5.9720     0.9100     0.0250 c6         1 HD2       0.178000
     24 C24         -5.6580     2.3700     0.4690 c6         1 HD2      -0.099400
     25 C25         -5.3720     0.6670    -1.3930 c6         1 HD2      -0.079400
     26 O26         -7.3850     0.7040    -0.0020 oh         1 HD2      -0.653000
     27 C27          4.8250     1.8270     0.8650 c5         1 HD2       0.214500
     28 C28          6.3500     1.6850     1.1570 c5         1 HD2      -0.128400
     29 C29          6.9770     2.3520    -0.0910 c5         1 HD2       0.145600
     30 O30          6.1260     3.4910    -0.2950 os         1 HD2      -0.440000
     31 C31          4.7640     3.0230    -0.1580 c5         1 HD2       0.128600
     32 H1           0.1810     1.5080     0.3120 h4         1 HD2       0.021100
     33 H8           0.4940    -3.2660    -0.8930 hc         1 HD2       0.071700
     34 H7           5.1440    -0.2060     0.0810 hn         1 HD2       0.509000
     35 H27          4.2300     1.9740     1.7800 h1         1 HD2       0.084700
     36 H91C         2.4070    -3.4480     1.5720 hc         1 HD2       0.053700
     37 H92C         0.6600    -3.6660     1.6190 hc         1 HD2       0.053700
     38 H121         2.6690    -3.4400    -2.1830 hc         1 HD2       0.053700
     39 H122         3.6050    -3.5130    -0.6810 hc         1 HD2       0.053700
     40 H101         2.4610    -5.7940     1.2070 hc         1 HD2       0.041200
     41 H102         0.8060    -5.8480     0.6120 hc         1 HD2       0.041200
     42 H111         3.1100    -5.8810    -1.1010 hc         1 HD2       0.041200
     43 H112         1.4670    -5.5220    -1.6250 hc         1 HD2       0.041200
     44 H15         -1.3100     0.8200    -0.7030 hn         1 HD2       0.314500
     45 H16         -3.4650    -1.1570    -0.6780 h1         1 HD2       0.075700
     46 H17         -3.4210     0.7140    -2.3680 hc         1 HD2       0.065700
     47 H21         -3.3260    -0.5660     1.7780 hc         1 HD2       0.065700
     48 H181        -2.4520     2.5490    -0.9230 hc         1 HD2       0.040950
     49 H182        -3.9740     3.0560    -1.6340 hc         1 HD2       0.040950
     50 H251        -5.8300     1.3480    -2.1250 hc         1 HD2       0.053700
     51 H252        -5.6020    -0.3520    -1.7340 hc         1 HD2       0.053700
     52 H19         -3.9020     3.6270     0.8160 hc         1 HD2       0.052700
     53 H201        -2.3880     1.7690     1.5700 hc         1 HD2       0.040950
     54 H202        -3.8660     1.7730     2.5170 hc         1 HD2       0.040950
     55 H241        -6.0860     2.5660     1.4630 hc         1 HD2       0.046700
     56 H242        -6.1260     3.0900    -0.2170 hc         1 HD2       0.046700
     57 H221        -5.5450    -1.1180     0.7480 hc         1 HD2       0.053700
     58 H222        -5.7340     0.0650     2.0360 hc         1 HD2       0.053700
     59 H26         -7.7570     1.3900    -0.5960 ho         1 HD2       0.440000
     60 H281         6.6200     2.2480     2.0570 hc         1 HD2       0.060200
     61 H282         6.6920     0.6560     1.3140 hc         1 HD2       0.060200
     62 H311         4.3920     2.7120    -1.1440 h1         1 HD2       0.059700
     63 H312         4.1330     3.8440     0.2050 h1         1 HD2       0.059700
     64 H291         8.0150     2.6740     0.0670 h1         1 HD2       0.050200
     65 H292         6.9330     1.7020    -0.9770 h1         1 HD2       0.050200
@<TRIPOS>BOND
     1     1     2 ar  
     2     1     6 ar  
     3     1    32 1   
     4     2     3 ar  
     5     2    13 1   
     6     3     4 ar  
     7     3     8 1   
     8     4     5 ar  
     9     5     6 ar  
    10     5     7 1   
    11     7    27 1   
    12     7    34 1   
    13     8     9 1   
    14     8    12 1   
    15     8    33 1   
    16     9    10 1   
    17     9    36 1   
    18     9    37 1   
    19    10    11 1   
    20    10    40 1   
    21    10    41 1   
    22    11    12 1   
    23    11    42 1   
    24    11    43 1   
    25    12    38 1   
    26    12    39 1   
    27    13    14 2   
    28    13    15 1   
    29    15    16 1   
    30    15    44 1   
    31    16    17 1   
    32    16    21 1   
    33    16    45 1   
    34    17    18 1   
    35    17    25 1   
    36    17    46 1   
    37    18    19 1   
    38    18    48 1   
    39    18    49 1   
    40    19    20 1   
    41    19    24 1   
    42    19    52 1   
    43    20    21 1   
    44    20    53 1   
    45    20    54 1   
    46    21    22 1   
    47    21    47 1   
    48    22    23 1   
    49    22    57 1   
    50    22    58 1   
    51    23    24 1   
    52    23    25 1   
    53    23    26 1   
    54    24    55 1   
    55    24    56 1   
    56    25    50 1   
    57    25    51 1   
    58    26    59 1   
    59    27    28 1   
    60    27    31 1   
    61    27    35 1   
    62    28    29 1   
    63    28    60 1   
    64    28    61 1   
    65    29    30 1   
    66    29    64 1   
    67    29    65 1   
    68    30    31 1   
    69    31    62 1   
    70    31    63 1   
@<TRIPOS>SUBSTRUCTURE
     1 HD2         1 TEMP              0 ****  ****    0 ROOT
