@<TRIPOS>MOLECULE
HD2
   65    70     1     0     0
SMALL
abcg2


@<TRIPOS>ATOM
      1 C1           0.9800     0.6830     0.6250 ca         1 HD2       0.169900
      2 C2           0.5600    -0.6030     0.3090 ca         1 HD2      -0.331600
      3 C3           1.5810    -1.5300     0.0320 ca         1 HD2       0.238300
      4 N4           2.8480    -1.1680     0.0970 nb         1 HD2      -0.266000
      5 C5           3.1400     0.0940     0.4340 ca         1 HD2       0.400900
      6 N6           2.2450     1.0530     0.6900 nb         1 HD2      -0.253000
      7 N7           4.4420     0.4060     0.5210 nu         1 HD2      -0.917100
      8 C8           1.3100    -2.9540    -0.3550 c5         1 HD2      -0.130000
      9 C9           1.4530    -3.9280     0.8360 c5         1 HD2      -0.068900
     10 C10          1.8900    -5.2770     0.2220 c5         1 HD2      -0.079400
     11 C11          2.0000    -5.0330    -1.2910 c5         1 HD2      -0.079400
     12 C12          2.2550    -3.5340    -1.4090 c5         1 HD2      -0.068900
     13 C13         -0.8840    -0.9510     0.3730 c          1 HD2       0.632700
     14 O14         -1.2890    -1.9530     0.9490 o          1 HD2      -0.602100
     15 N15         -1.7070    -0.0640    -0.2160 ns         1 HD2      -0.505900
     16 C16         -3.1520    -0.1500    -0.1420 c6         1 HD2       0.120700
     17 C17         -3.8020     0.6070    -1.3060 c6         1 HD2      -0.072200
     18 C18         -3.5420     2.1120    -1.1930 c6         1 HD2      -0.070900
     19 C19         -4.0980     2.6300     0.1340 c6         1 HD2      -0.056700
     20 C20         -3.4240     1.8970     1.2940 c6         1 HD2      -0.070900
     21 C21         -3.7020     0.3980     1.1850 c6         1 HD2      -0.072200
     22 C22         -5.2110     0.1480     1.2270 c6         1 HD2      -0.079400
     23 C23         -5.8910     0.8750     0.0700 c6         1 HD2       0.178000
     24 C24         -5.6070     2.3750     0.1850 c6         1 HD2      -0.099400
     25 C25         -5.3120     0.3590    -1.2520 c6         1 HD2      -0.079400
     26 O26         -7.2770     0.6030     0.1610 oh         1 HD2      -0.653000
     27 C27          4.9400     1.7130     0.8750 c5         1 HD2       0.214500
     28 C28          6.4510     1.6910     1.1820 c5         1 HD2      -0.128400
     29 C29          7.0380     2.6860     0.1790 c5         1 HD2       0.145600
     30 O30          5.9750     3.5610    -0.1440 os         1 HD2      -0.440000
     31 C31          4.8330     2.7460    -0.2640 c5         1 HD2       0.128600
     32 H1           0.2490     1.4530     0.8570 h4         1 HD2       0.021100
     33 H8           0.2920    -3.0330    -0.7400 hc         1 HD2       0.071700
     34 H7           5.0970    -0.3180     0.2740 hn         1 HD2       0.509000
     35 H27          4.3850     2.0680     1.7450 h1         1 HD2       0.084700
     36 H91C         2.2110    -3.5610     1.5310 hc         1 HD2       0.053700
     37 H92C         0.5200    -3.9950     1.3930 hc         1 HD2       0.053700
     38 H121         2.0590    -3.1400    -2.4090 hc         1 HD2       0.053700
     39 H122         3.2910    -3.3010    -1.1550 hc         1 HD2       0.053700
     40 H101         2.8570    -5.5760     0.6270 hc         1 HD2       0.041200
     41 H102         1.1900    -6.0800     0.4530 hc         1 HD2       0.041200
     42 H111         2.7800    -5.6340    -1.7600 hc         1 HD2       0.041200
     43 H112         1.0580    -5.2870    -1.7850 hc         1 HD2       0.041200
     44 H15         -1.2970     0.6760    -0.7630 hn         1 HD2       0.314500
     45 H16         -3.4240    -1.2070    -0.2240 h1         1 HD2       0.075700
     46 H17         -3.4040     0.2250    -2.2500 hc         1 HD2       0.065700
     47 H21         -3.2280    -0.1330     2.0150 hc         1 HD2       0.065700
     48 H181        -2.4750     2.3450    -1.2790 hc         1 HD2       0.040950
     49 H182        -4.0250     2.6230    -2.0310 hc         1 HD2       0.040950
     50 H251        -5.7940     0.8710    -2.0920 hc         1 HD2       0.053700
     51 H252        -5.5270    -0.7090    -1.3610 hc         1 HD2       0.053700
     52 H19         -3.9090     3.7040     0.2170 hc         1 HD2       0.052700
     53 H201        -2.3470     2.0910     1.2970 hc         1 HD2       0.040950
     54 H202        -3.8050     2.2720     2.2490 hc         1 HD2       0.040950
     55 H241        -6.0260     2.7560     1.1220 hc         1 HD2       0.046700
     56 H242        -6.1040     2.9090    -0.6340 hc         1 HD2       0.046700
     57 H221        -5.4200    -0.9250     1.1680 hc         1 HD2       0.053700
     58 H222        -5.6190     0.5030     2.1800 hc         1 HD2       0.053700
     59 H26         -7.7190     1.0510    -0.5690 ho         1 HD2       0.440000
     60 H281         6.6350     2.0080     2.2070 hc         1 HD2       0.060200
     61 H282         6.8840     0.6960     1.0670 hc         1 HD2       0.060200
     62 H311         4.8150     2.2190    -1.2290 h1         1 HD2       0.059700
     63 H312         3.9420     3.3710    -0.1960 h1         1 HD2       0.059700
     64 H291         7.8650     3.2710     0.5800 h1         1 HD2       0.050200
     65 H292         7.3930     2.1610    -0.7180 h1         1 HD2       0.050200
@<TRIPOS>BOND
     1     1     2 ar  
     2     1     6 ar  
     3     1    32 1   
     4     2     3 ar  
     5     2    13 1   
     6     3     4 ar  
     7     3     8 1   
     8     4     5 ar  
     9     5     6 ar  
    10     5     7 1   
    11     7    27 1   
    12     7    34 1   
    13     8     9 1   
    14     8    12 1   
    15     8    33 1   
    16     9    10 1   
    17     9    36 1   
    18     9    37 1   
    19    10    11 1   
    20    10    40 1   
    21    10    41 1   
    22    11    12 1   
    23    11    42 1   
    24    11    43 1   
    25    12    38 1   
    26    12    39 1   
    27    13    14 2   
    28    13    15 1   
    29    15    16 1   
    30    15    44 1   
    31    16    17 1   
    32    16    21 1   
    33    16    45 1   
    34    17    18 1   
    35    17    25 1   
    36    17    46 1   
    37    18    19 1   
    38    18    48 1   
    39    18    49 1   
    40    19    20 1   
    41    19    24 1   
    42    19    52 1   
    43    20    21 1   
    44    20    53 1   
    45    20    54 1   
    46    21    22 1   
    47    21    47 1   
    48    22    23 1   
    49    22    57 1   
    50    22    58 1   
    51    23    24 1   
    52    23    25 1   
    53    23    26 1   
    54    24    55 1   
    55    24    56 1   
    56    25    50 1   
    57    25    51 1   
    58    26    59 1   
    59    27    28 1   
    60    27    31 1   
    61    27    35 1   
    62    28    29 1   
    63    28    60 1   
    64    28    61 1   
    65    29    30 1   
    66    29    64 1   
    67    29    65 1   
    68    30    31 1   
    69    31    62 1   
    70    31    63 1   
@<TRIPOS>SUBSTRUCTURE
     1 HD2         1 TEMP              0 ****  ****    0 ROOT
