@<TRIPOS>MOLECULE
HD3
   34    36     1     0     0
SMALL
abcg2


@<TRIPOS>ATOM
      1 C05        -49.9710   -17.0920    -3.4990 cc         1 HD3      -0.307600
      2 C06        -50.8230   -16.7740    -2.4030 c          1 HD3       0.621600
      3 C01        -50.1130   -17.0040    -4.9140 cc         1 HD3      -0.095000
      4 C02        -48.9540   -17.4750    -5.4420 cd         1 HD3      -0.182000
      5 C04        -48.7120   -17.6200    -3.2310 cd         1 HD3       0.185400
      6 C12        -46.7990   -18.4220    -4.6600 c5         1 HD3       0.320300
      7 C09        -48.9620   -17.5730    -1.0170 cc         1 HD3       0.720800
      8 C13        -45.6210   -17.7790    -3.9370 c5         1 HD3       0.137300
      9 C14        -44.5600   -18.8710    -4.1140 c5         1 HD3       0.101300
     10 C15        -45.4140   -20.1580    -4.0520 c5         1 HD3       0.140300
     11 C17        -45.2690   -20.9600    -2.7800 c3         1 HD3       0.158600
     12 N03        -48.0930   -17.8480    -4.4210 na         1 HD3       0.022000
     13 N08        -50.2140   -17.0520    -1.1760 ns         1 HD3      -0.455400
     14 N10        -48.1840   -17.8720    -2.0200 nd         1 HD3      -0.700100
     15 N11        -48.5190   -17.7380     0.2450 nv         1 HD3      -1.042200
     16 O07        -51.9540   -16.3140    -2.4380 o          1 HD3      -0.550000
     17 O16        -46.7730   -19.7600    -4.2460 os         1 HD3      -0.440000
     18 O18        -45.4710   -20.1420    -1.6540 oh         1 HD3      -0.709000
     19 O19        -43.9500   -18.6910    -5.3670 oh         1 HD3      -0.699000
     20 O20        -45.3400   -16.5360    -4.5020 oh         1 HD3      -0.686000
     21 H1         -50.9630   -16.6390    -5.4670 ha         1 HD3       0.146000
     22 H2         -48.6490   -17.5810    -6.4700 h4         1 HD3       0.150000
     23 H3         -46.6390   -18.3350    -5.7430 h2         1 HD3       0.079700
     24 H4         -45.8540   -17.7050    -2.8700 h1         1 HD3       0.093700
     25 H5         -43.8160   -18.8480    -3.3080 h1         1 HD3       0.058700
     26 H6         -45.1150   -20.8210    -4.8740 h1         1 HD3       0.056700
     27 H7         -45.9740   -21.8010    -2.8060 h1         1 HD3       0.028200
     28 H8         -44.2610   -21.3950    -2.7930 h1         1 HD3       0.028200
     29 H9         -50.7630   -16.8390    -0.3520 hn         1 HD3       0.319500
     30 H10        -47.6810   -18.2850     0.3550 hn         1 HD3       0.491500
     31 H11        -49.1690   -17.7800     1.0120 hn         1 HD3       0.491500
     32 H12        -45.3070   -20.6660    -0.8650 ho         1 HD3       0.501000
     33 H13        -43.3070   -19.3950    -5.4960 ho         1 HD3       0.500000
     34 H14        -44.6980   -16.0820    -3.9480 ho         1 HD3       0.512000
@<TRIPOS>BOND
     1     1     2 1   
     2     1     3 1   
     3     1     5 2   
     4     2    13 1   
     5     2    16 2   
     6     3     4 2   
     7     3    21 1   
     8     4    12 1   
     9     4    22 1   
    10     5    12 1   
    11     5    14 1   
    12     6     8 1   
    13     6    12 1   
    14     6    17 1   
    15     6    23 1   
    16     7    13 1   
    17     7    14 2   
    18     7    15 1   
    19     8     9 1   
    20     8    20 1   
    21     8    24 1   
    22     9    10 1   
    23     9    19 1   
    24     9    25 1   
    25    10    11 1   
    26    10    17 1   
    27    10    26 1   
    28    11    18 1   
    29    11    27 1   
    30    11    28 1   
    31    13    29 1   
    32    15    30 1   
    33    15    31 1   
    34    18    32 1   
    35    19    33 1   
    36    20    34 1   
@<TRIPOS>SUBSTRUCTURE
     1 HD3         1 TEMP              0 ****  ****    0 ROOT
