@<TRIPOS>MOLECULE
HD3
   34    36     1     0     0
SMALL
No Charge or Current Charge


@<TRIPOS>ATOM
      1 C05        -49.9650   -17.0980    -3.4230 cc         1 HD3      -0.307600
      2 C06        -50.9140   -16.7220    -2.3820 c          1 HD3       0.621600
      3 C01        -50.1260   -17.0180    -4.8200 cc         1 HD3      -0.095000
      4 C02        -48.9800   -17.4780    -5.4190 cd         1 HD3      -0.182000
      5 C04        -48.7290   -17.6030    -3.1600 cd         1 HD3       0.185400
      6 C12        -46.7450   -18.3950    -4.5950 c5         1 HD3       0.320300
      7 C09        -49.1670   -17.4530    -0.9500 cc         1 HD3       0.720800
      8 C13        -45.5670   -17.7850    -3.7760 c5         1 HD3       0.137300
      9 C14        -44.4690   -18.8280    -4.1330 c5         1 HD3       0.101300
     10 C15        -45.2970   -20.1700    -4.0980 c5         1 HD3       0.140300
     11 C17        -45.1190   -21.0320    -2.8110 c3         1 HD3       0.158600
     12 N03        -48.0930   -17.8480    -4.3870 na         1 HD3       0.022000
     13 N08        -50.4010   -16.9480    -1.1550 ns         1 HD3      -0.455400
     14 N10        -48.2810   -17.7990    -1.8550 nd         1 HD3      -0.700100
     15 N11        -48.8130   -17.6190     0.3120 nv         1 HD3      -1.042200
     16 O07        -52.0290   -16.2620    -2.5650 o          1 HD3      -0.550000
     17 O16        -46.6950   -19.7990    -4.2590 os         1 HD3      -0.440000
     18 O18        -45.2630   -20.2580    -1.6050 oh         1 HD3      -0.709000
     19 O19        -43.9280   -18.5430    -5.4410 oh         1 HD3      -0.699000
     20 O20        -45.1540   -16.4750    -4.2010 oh         1 HD3      -0.686000
     21 H1         -51.0160   -16.6510    -5.3250 ha         1 HD3       0.146000
     22 H2         -48.7290   -17.5700    -6.4700 h4         1 HD3       0.150000
     23 H3         -46.5430   -18.2770    -5.6670 h2         1 HD3       0.079700
     24 H4         -45.7890   -17.8020    -2.7010 h1         1 HD3       0.093700
     25 H5         -43.6670   -18.8310    -3.3810 h1         1 HD3       0.058700
     26 H6         -45.0210   -20.8050    -4.9510 h1         1 HD3       0.056700
     27 H7         -45.8530   -21.8490    -2.8320 h1         1 HD3       0.028200
     28 H8         -44.1210   -21.4890    -2.8410 h1         1 HD3       0.028200
     29 H9         -50.9750   -16.6990    -0.3680 hn         1 HD3       0.319500
     30 H10        -47.9690   -18.1680     0.4140 hn         1 HD3       0.491500
     31 H11        -49.5500   -17.8370     0.9700 hn         1 HD3       0.491500
     32 H12        -45.2280   -20.8920    -0.8510 ho         1 HD3       0.501000
     33 H13        -43.1940   -19.1830    -5.6070 ho         1 HD3       0.500000
     34 H14        -44.5010   -16.6690    -4.9200 ho         1 HD3       0.512000
@<TRIPOS>BOND
     1     1     2 1   
     2     1     3 1   
     3     1     5 2   
     4     2    13 1   
     5     2    16 2   
     6     3     4 2   
     7     3    21 1   
     8     4    12 1   
     9     4    22 1   
    10     5    12 1   
    11     5    14 1   
    12     6     8 1   
    13     6    12 1   
    14     6    17 1   
    15     6    23 1   
    16     7    13 1   
    17     7    14 2   
    18     7    15 1   
    19     8     9 1   
    20     8    20 1   
    21     8    24 1   
    22     9    10 1   
    23     9    19 1   
    24     9    25 1   
    25    10    11 1   
    26    10    17 1   
    27    10    26 1   
    28    11    18 1   
    29    11    27 1   
    30    11    28 1   
    31    13    29 1   
    32    15    30 1   
    33    15    31 1   
    34    18    32 1   
    35    19    33 1   
    36    20    34 1   
@<TRIPOS>SUBSTRUCTURE
     1 HD3         1 TEMP              0 ****  ****    0 ROOT
