@<TRIPOS>MOLECULE
HDA
   12    11     1     0     0
SMALL
No Charge or Current Charge


@<TRIPOS>ATOM
      1 NA           0.6840     0.6670    -0.1090 n          1 HDA      -0.249300
      2 C            1.3520    -0.5470     0.2200 c          1 HDA       0.624900
      3 O            2.4920    -0.5770     0.6790 o          1 HDA      -0.620100
      4 OB           1.3320     1.9390     0.0830 oh         1 HDA      -0.440100
      5 CB          -0.6880     0.7280    -0.6770 c3         1 HDA      -0.079000
      6 CG          -1.6130    -0.4600    -0.3200 c          1 HDA       0.703000
      7 OD1         -1.7920    -1.3250    -1.1640 o          1 HDA      -0.715500
      8 OD2         -2.0760    -0.5120     0.8100 o          1 HDA      -0.715500
      9 HC           0.7510    -1.4530     0.0160 h5         1 HDA       0.004200
     10 HOB          1.8470     2.0890    -0.7420 ho         1 HDA       0.419000
     11 HB1         -1.1770     1.6470    -0.3290 h1         1 HDA       0.034200
     12 HB2         -0.6100     0.7870    -1.7700 h1         1 HDA       0.034200
@<TRIPOS>BOND
     1     1     2 1   
     2     1     4 1   
     3     1     5 1   
     4     2     3 2   
     5     2     9 1   
     6     4    10 1   
     7     5     6 1   
     8     5    11 1   
     9     5    12 1   
    10     6     7 1   
    11     6     8 1   
@<TRIPOS>SUBSTRUCTURE
     1 HDA         1 TEMP              0 ****  ****    0 ROOT
