@<TRIPOS>MOLECULE
HDA
   12    11     1     0     0
SMALL
bcc


@<TRIPOS>ATOM
      1 NA           0.7950     0.5300    -0.3390 n          1 HDA      -0.316300
      2 C            1.4820    -0.6130    -0.4630 c          1 HDA       0.691900
      3 O            2.4610    -0.9310     0.1840 o          1 HDA      -0.620100
      4 OB           1.1080     1.2790     0.7740 oh         1 HDA      -0.401100
      5 CB          -0.5660     0.6460    -0.8020 c3         1 HDA      -0.079000
      6 CG          -1.5940    -0.1270     0.0560 c          1 HDA       0.913600
      7 OD1         -1.1430    -1.0300     0.7790 o          1 HDA      -0.820800
      8 OD2         -2.7550     0.3200     0.0200 o          1 HDA      -0.820800
      9 HC           1.0710    -1.2230    -1.2790 h5         1 HDA       0.004200
     10 HOB          1.0540     2.1970     0.4780 ho         1 HDA       0.380000
     11 HB1         -0.8160     1.7020    -0.8970 h1         1 HDA       0.034200
     12 HB2         -0.5950     0.2320    -1.8140 h1         1 HDA       0.034200
@<TRIPOS>BOND
     1     1     2 1   
     2     1     4 1   
     3     1     5 1   
     4     2     3 2   
     5     2     9 1   
     6     4    10 1   
     7     5     6 1   
     8     5    11 1   
     9     5    12 1   
    10     6     7 1   
    11     6     8 1   
@<TRIPOS>SUBSTRUCTURE
     1 HDA         1 TEMP              0 ****  ****    0 ROOT
