@<TRIPOS>MOLECULE
HDF
   43    45     1     0     0
SMALL
abcg2


@<TRIPOS>ATOM
      1 N1           2.0860     0.3510    -0.8860 nc         1 HDF      -0.514400
      2 C2           3.2530     0.2390    -1.5750 c          1 HDF       0.738400
      3 O2           4.3410     0.3360    -1.0410 o          1 HDF      -0.516000
      4 N3           3.1870     0.0000    -2.9450 ns         1 HDF      -0.490500
      5 C4           2.0510    -0.1690    -3.6850 c          1 HDF       0.600600
      6 O4           2.0800    -0.3940    -4.8790 o          1 HDF      -0.534000
      7 C4A          0.8210    -0.0540    -2.9030 cd         1 HDF      -0.286600
      8 C5          -0.4060    -0.2310    -3.4680 cc         1 HDF       0.092000
      9 C5A         -1.5670    -0.1580    -2.6850 ca         1 HDF      -0.186000
     10 C6          -2.8440    -0.3930    -3.2320 ca         1 HDF       0.001000
     11 C7          -3.9670    -0.3460    -2.4610 ca         1 HDF      -0.171000
     12 C8          -3.8400    -0.0620    -1.0870 ca         1 HDF       0.223100
     13 O8          -4.9610    -0.0540    -0.3710 oh         1 HDF      -0.512100
     14 C9          -2.6000     0.1870    -0.5190 ca         1 HDF      -0.285000
     15 C9A         -1.4500     0.1520    -1.3100 ca         1 HDF       0.096000
     16 N10         -0.2000     0.4120    -0.7850 na         1 HDF      -0.031000
     17 C10          0.9400     0.2340    -1.5140 cd         1 HDF       0.177000
     18 C1          -0.0750     0.9580     0.5740 c3         1 HDF       0.020600
     19 C11          0.1020    -0.0990     1.6630 c3         1 HDF       0.145300
     20 O1           1.3230    -0.7870     1.5320 oh         1 HDF      -0.734000
     21 C3           0.0350     0.5840     3.0430 c3         1 HDF       0.117300
     22 O3           1.2500     1.2440     3.3130 oh         1 HDF      -0.722000
     23 C12         -0.3790    -0.3810     4.1580 c3         1 HDF       0.151300
     24 O6           0.4610    -1.5060     4.2680 oh         1 HDF      -0.687000
     25 C13         -0.5220     0.3590     5.4790 c3         1 HDF       0.130600
     26 O5          -1.0530    -0.5240     6.4400 oh         1 HDF      -0.710000
     27 HN3          4.0710    -0.0850    -3.4300 hn         1 HDF       0.340500
     28 H5          -0.4910    -0.4500    -4.5260 ha         1 HDF       0.150000
     29 H6          -2.9200    -0.6160    -4.2890 ha         1 HDF       0.132000
     30 H7          -4.9460    -0.5320    -2.8830 ha         1 HDF       0.146000
     31 HO8         -4.7860     0.1340     0.5590 ho         1 HDF       0.480000
     32 H9          -2.5520     0.3830     0.5420 ha         1 HDF       0.128000
     33 H1'1        -0.9610     1.5590     0.7690 h1         1 HDF       0.083700
     34 H1'2         0.7670     1.6490     0.5730 h1         1 HDF       0.083700
     35 H2          -0.7260    -0.8160     1.5890 h1         1 HDF       0.061700
     36 HO2          1.8210    -0.4010     0.7860 ho         1 HDF       0.557000
     37 H3          -0.7420     1.3570     3.0050 h1         1 HDF       0.058700
     38 HO3          1.9590     0.6580     3.0180 ho         1 HDF       0.527000
     39 H4          -1.3640    -0.7730     3.8790 h1         1 HDF       0.075700
     40 HO4          1.3300    -1.2170     4.5640 ho         1 HDF       0.504000
     41 H5'1        -1.1760     1.2280     5.3250 h1         1 HDF       0.026700
     42 H5'2         0.4570     0.7480     5.7880 h1         1 HDF       0.026700
     43 HO5         -1.0500    -0.0740     7.2900 ho         1 HDF       0.503000
@<TRIPOS>BOND
     1     1     2 1   
     2     1    17 2   
     3     2     3 2   
     4     2     4 1   
     5     4     5 1   
     6     4    27 1   
     7     5     6 2   
     8     5     7 1   
     9     7     8 2   
    10     7    17 1   
    11     8     9 1   
    12     8    28 1   
    13     9    10 ar  
    14     9    15 ar  
    15    10    11 ar  
    16    10    29 1   
    17    11    12 ar  
    18    11    30 1   
    19    12    13 1   
    20    12    14 ar  
    21    13    31 1   
    22    14    15 ar  
    23    14    32 1   
    24    15    16 1   
    25    16    17 1   
    26    16    18 1   
    27    18    19 1   
    28    18    33 1   
    29    18    34 1   
    30    19    20 1   
    31    19    21 1   
    32    19    35 1   
    33    20    36 1   
    34    21    22 1   
    35    21    23 1   
    36    21    37 1   
    37    22    38 1   
    38    23    24 1   
    39    23    25 1   
    40    23    39 1   
    41    24    40 1   
    42    25    26 1   
    43    25    41 1   
    44    25    42 1   
    45    26    43 1   
@<TRIPOS>SUBSTRUCTURE
     1 HDF         1 TEMP              0 ****  ****    0 ROOT
