@<TRIPOS>MOLECULE
HDF
   43    45     1     0     0
SMALL
No Charge or Current Charge


@<TRIPOS>ATOM
      1 N1           2.0900     0.1690    -0.9380 nc         1 HDF      -0.514400
      2 C2           3.2790    -0.0540    -1.6070 c          1 HDF       0.738400
      3 O2           4.3510    -0.0380    -1.0320 o          1 HDF      -0.516000
      4 N3           3.2100    -0.2950    -2.9390 ns         1 HDF      -0.490500
      5 C4           2.1030    -0.3540    -3.7160 c          1 HDF       0.600600
      6 O4           2.1610    -0.5800    -4.9130 o          1 HDF      -0.534000
      7 C4A          0.8670    -0.1210    -2.9530 cd         1 HDF      -0.286600
      8 C5          -0.3550    -0.1470    -3.5840 cc         1 HDF       0.092000
      9 C5A         -1.5410    -0.0440    -2.7490 ca         1 HDF      -0.186000
     10 C6          -2.7960    -0.2580    -3.3520 ca         1 HDF       0.001000
     11 C7          -3.9640    -0.2400    -2.5800 ca         1 HDF      -0.171000
     12 C8          -3.8810    -0.0260    -1.2040 ca         1 HDF       0.223100
     13 O8          -5.0170    -0.0300    -0.4560 oh         1 HDF      -0.512100
     14 C9          -2.6380     0.1900    -0.5960 ca         1 HDF      -0.285000
     15 C9A         -1.4420     0.2070    -1.3600 ca         1 HDF       0.096000
     16 N10         -0.1940     0.4620    -0.7380 na         1 HDF      -0.031000
     17 C10          0.9160     0.1480    -1.5490 cd         1 HDF       0.177000
     18 C1          -0.1060     1.0880     0.6110 c3         1 HDF       0.020600
     19 C11          0.0510     0.0610     1.7610 c3         1 HDF       0.145300
     20 O1           1.3750    -0.5180     1.7170 oh         1 HDF      -0.734000
     21 C3          -0.1910     0.6880     3.1710 c3         1 HDF       0.117300
     22 O3           0.8230     1.6830     3.4300 oh         1 HDF      -0.722000
     23 C12         -0.2130    -0.3940     4.3040 c3         1 HDF       0.151300
     24 O6           1.0400    -1.1130     4.3090 oh         1 HDF      -0.687000
     25 C13         -0.5200     0.2100     5.7100 c3         1 HDF       0.130600
     26 O5          -0.7530    -0.8210     6.6910 oh         1 HDF      -0.710000
     27 HN3          4.0900    -0.4500    -3.4020 hn         1 HDF       0.340500
     28 H5          -0.4260    -0.3250    -4.6540 ha         1 HDF       0.150000
     29 H6          -2.8670    -0.4510    -4.4210 ha         1 HDF       0.132000
     30 H7          -4.9310    -0.4090    -3.0480 ha         1 HDF       0.146000
     31 HO8         -4.7690     0.1390     0.4770 ho         1 HDF       0.480000
     32 H9          -2.6170     0.3380     0.4790 ha         1 HDF       0.128000
     33 H1'1        -0.9950     1.7060     0.7820 h1         1 HDF       0.083700
     34 H1'2         0.7410     1.7850     0.6260 h1         1 HDF       0.083700
     35 H2          -0.7050    -0.7240     1.6120 h1         1 HDF       0.061700
     36 HO2          1.7050    -0.4000     0.7840 ho         1 HDF       0.557000
     37 H3          -1.1810     1.1660     3.1590 h1         1 HDF       0.058700
     38 HO3          1.6830     1.2480     3.2180 ho         1 HDF       0.527000
     39 H4          -1.0330    -1.0870     4.0650 h1         1 HDF       0.075700
     40 HO4          1.3360    -1.0900     3.3560 ho         1 HDF       0.504000
     41 H5'1        -1.4070     0.8520     5.6300 h1         1 HDF       0.026700
     42 H5'2         0.3180     0.8490     6.0200 h1         1 HDF       0.026700
     43 HO5         -0.8410    -0.3730     7.5650 ho         1 HDF       0.503000
@<TRIPOS>BOND
     1     1     2 1   
     2     1    17 2   
     3     2     3 2   
     4     2     4 1   
     5     4     5 1   
     6     4    27 1   
     7     5     6 2   
     8     5     7 1   
     9     7     8 2   
    10     7    17 1   
    11     8     9 1   
    12     8    28 1   
    13     9    10 ar  
    14     9    15 ar  
    15    10    11 ar  
    16    10    29 1   
    17    11    12 ar  
    18    11    30 1   
    19    12    13 1   
    20    12    14 ar  
    21    13    31 1   
    22    14    15 ar  
    23    14    32 1   
    24    15    16 1   
    25    16    17 1   
    26    16    18 1   
    27    18    19 1   
    28    18    33 1   
    29    18    34 1   
    30    19    20 1   
    31    19    21 1   
    32    19    35 1   
    33    20    36 1   
    34    21    22 1   
    35    21    23 1   
    36    21    37 1   
    37    22    38 1   
    38    23    24 1   
    39    23    25 1   
    40    23    39 1   
    41    24    40 1   
    42    25    26 1   
    43    25    41 1   
    44    25    42 1   
    45    26    43 1   
@<TRIPOS>SUBSTRUCTURE
     1 HDF         1 TEMP              0 ****  ****    0 ROOT
