@<TRIPOS>MOLECULE
HDG
   87    91     1     0     0
SMALL
No Charge or Current Charge


@<TRIPOS>ATOM
      1 C4          -2.0130    -1.7800    -1.2800 c3         1 HDG      -0.058700
      2 C3          -2.3730    -0.6990    -2.3490 c3         1 HDG      -0.079400
      3 C2          -3.5000     0.2970    -1.9720 c5         1 HDG       0.164300
      4 C5          -0.8130    -2.6720    -1.7380 c3         1 HDG      -0.070400
      5 C6           0.5250    -1.9180    -1.9680 c3         1 HDG      -0.067400
      6 C1          -3.7260     1.4590    -2.9860 c5         1 HDG       0.089300
      7 C8           3.0810    -2.0230    -2.1380 c          1 HDG       0.554100
      8 N1           3.8670    -2.2810    -1.0330 ns         1 HDG      -0.505900
      9 C9           5.1420    -1.6180    -0.7390 c3         1 HDG       0.103000
     10 C10          4.9480    -0.1970    -0.1710 c3         1 HDG      -0.041100
     11 C11          6.2760     0.4640     0.1740 ca         1 HDG      -0.122300
     12 C17          7.0030     1.1530    -0.8150 ca         1 HDG      -0.066500
     13 C16          8.2300     1.7590    -0.4960 ca         1 HDG      -0.170000
     14 C14          8.7450     1.6830     0.8080 ca         1 HDG       0.143100
     15 O2           9.9550     2.2960     1.0610 os         1 HDG      -0.341100
     16 C15         10.5660     2.2780     2.3640 c3         1 HDG       0.147900
     17 C13          8.0190     0.9910     1.8020 ca         1 HDG      -0.170000
     18 C12          6.7910     0.3850     1.4830 ca         1 HDG      -0.066500
     19 C7           1.7440    -2.8460    -2.2190 c3         1 HDG       0.088500
     20 N            1.5630    -3.6280    -3.4890 n8         1 HDG      -0.986200
     21 C18         -3.2540    -2.6410    -0.9010 c3         1 HDG       0.163800
     22 N2          -2.9670    -3.5500     0.2250 n7         1 HDG      -0.865400
     23 C19         -4.0950    -4.3960     0.6510 c3         1 HDG       0.207100
     24 C20         -3.6610    -5.3320     1.7710 ca         1 HDG      -0.091300
     25 C25         -3.6740    -4.8920     3.1100 ca         1 HDG      -0.097000
     26 C24         -3.2760    -5.7560     4.1450 ca         1 HDG      -0.115500
     27 C23         -2.8620    -7.0660     3.8480 ca         1 HDG      -0.108000
     28 C22         -2.8460    -7.5100     2.5150 ca         1 HDG      -0.115500
     29 C21         -3.2440    -6.6460     1.4790 ca         1 HDG      -0.097000
     30 O1          -4.4310     1.0660    -4.1790 oh         1 HDG      -0.708000
     31 O4          -3.1590     0.9900    -0.7580 os         1 HDG      -0.444000
     32 C26         -3.9270     2.2180    -0.6960 c5         1 HDG       0.323300
     33 C           -4.6020     2.4000    -2.1110 c5         1 HDG       0.102300
     34 O           -5.9590     1.9350    -2.1660 oh         1 HDG      -0.702000
     35 N3          -3.0310     3.2810    -0.2390 na         1 HDG      -0.312300
     36 C31         -2.2530     4.1130    -1.0520 cc         1 HDG       0.410700
     37 N7          -1.5650     5.0110    -0.3210 nd         1 HDG      -0.553100
     38 C30         -1.9360     4.7090     0.9930 ca         1 HDG      -0.099600
     39 C27         -2.8250     3.6650     1.0550 ca         1 HDG       0.118500
     40 C29         -1.5380     5.3160     2.2020 ca         1 HDG       0.451900
     41 N6          -0.6660     6.3590     2.2470 nv         1 HDG      -1.064900
     42 N5          -2.0160     4.8930     3.3820 nb         1 HDG      -0.304000
     43 C28         -2.8890     3.8570     3.3340 ca         1 HDG       0.181900
     44 N4          -3.3230     3.2140     2.2230 nb         1 HDG      -0.223000
     45 H1          -1.7010    -1.2510    -0.3710 hc         1 HDG       0.075700
     46 H2          -1.4780    -0.1090    -2.5760 hc         1 HDG       0.052200
     47 H3          -2.6440    -1.2090    -3.2820 hc         1 HDG       0.052200
     48 H4          -4.4370    -0.2540    -1.8130 h1         1 HDG       0.081700
     49 H5          -0.6260    -3.4430    -0.9810 hc         1 HDG       0.049700
     50 H6          -1.0940    -3.2040    -2.6560 hc         1 HDG       0.049700
     51 H7           0.4320    -1.2290    -2.8150 hc         1 HDG       0.046200
     52 H8           0.7330    -1.3040    -1.0830 hc         1 HDG       0.046200
     53 H9          -2.7710     1.9430    -3.2390 h1         1 HDG       0.058700
     54 H10          3.5170    -2.9630    -0.3690 hn         1 HDG       0.312500
     55 H11          5.6920    -2.2270    -0.0100 h1         1 HDG       0.057200
     56 H12          5.7430    -1.5690    -1.6570 h1         1 HDG       0.057200
     57 H13          4.4040     0.4150    -0.9010 hc         1 HDG       0.048200
     58 H14          4.3100    -0.2520     0.7190 hc         1 HDG       0.048200
     59 H15          6.6170     1.2190    -1.8300 ha         1 HDG       0.112500
     60 H16          8.7860     2.2910    -1.2640 ha         1 HDG       0.123000
     61 H17         11.5190     2.8220     2.3440 h1         1 HDG       0.040700
     62 H18          9.9170     2.7580     3.1070 h1         1 HDG       0.040700
     63 H19         10.7700     1.2490     2.6850 h1         1 HDG       0.040700
     64 H20          8.3880     0.9130     2.8200 ha         1 HDG       0.123000
     65 H21          6.2390    -0.1480     2.2550 ha         1 HDG       0.112500
     66 H22          1.7770    -3.5730    -1.3950 h1         1 HDG       0.062700
     67 H23          1.6440    -2.9820    -4.2850 hn         1 HDG       0.409000
     68 H24          2.3650    -4.2560    -3.6200 hn         1 HDG       0.409000
     69 H26         -4.0830    -1.9810    -0.6160 h1         1 HDG       0.030200
     70 H27         -3.5750    -3.2130    -1.7830 h1         1 HDG       0.030200
     71 H28         -2.2030    -4.1730    -0.0540 hn         1 HDG       0.411000
     72 H30         -4.9290    -3.7740     1.0030 h1         1 HDG       0.036200
     73 H31         -4.4660    -4.9930    -0.1930 h1         1 HDG       0.036200
     74 H32         -3.9900    -3.8780     3.3450 ha         1 HDG       0.117500
     75 H33         -3.2870    -5.4100     5.1760 ha         1 HDG       0.111500
     76 H34         -2.5540    -7.7340     4.6490 ha         1 HDG       0.111000
     77 H35         -2.5260    -8.5240     2.2840 ha         1 HDG       0.111500
     78 H36         -3.2290    -6.9990     0.4500 ha         1 HDG       0.117500
     79 H37         -3.7690     0.6920    -4.8100 ho         1 HDG       0.517000
     80 H38         -4.7100     2.1320     0.0680 h2         1 HDG       0.123700
     81 H39         -4.5430     3.4410    -2.4590 h1         1 HDG       0.082700
     82 H40         -5.9930     1.4770    -3.0460 ho         1 HDG       0.524000
     83 H41         -2.2300     4.0210    -2.1310 h5         1 HDG       0.073800
     84 H42         -0.6550     6.9330     3.0860 hn         1 HDG       0.508000
     85 H43         -0.4680     6.8310     1.3680 hn         1 HDG       0.508000
     86 H44         -3.2820     3.5050     4.2860 h5         1 HDG       0.046100
     87 O3           3.4290    -1.2350    -3.0110 o          1 HDG      -0.609100
@<TRIPOS>BOND
     1     1     2 1   
     2     1     4 1   
     3     1    21 1   
     4     1    45 1   
     5     2     3 1   
     6     2    46 1   
     7     2    47 1   
     8     3     6 1   
     9     3    31 1   
    10     3    48 1   
    11     4     5 1   
    12     4    49 1   
    13     4    50 1   
    14     5    19 1   
    15     5    51 1   
    16     5    52 1   
    17     6    30 1   
    18     6    33 1   
    19     6    53 1   
    20     7     8 1   
    21     7    19 1   
    22     7    87 2   
    23     8     9 1   
    24     8    54 1   
    25     9    10 1   
    26     9    55 1   
    27     9    56 1   
    28    10    11 1   
    29    10    57 1   
    30    10    58 1   
    31    11    12 ar  
    32    11    18 ar  
    33    12    13 ar  
    34    12    59 1   
    35    13    14 ar  
    36    13    60 1   
    37    14    15 1   
    38    14    17 ar  
    39    15    16 1   
    40    16    61 1   
    41    16    62 1   
    42    16    63 1   
    43    17    18 ar  
    44    17    64 1   
    45    18    65 1   
    46    19    20 1   
    47    19    66 1   
    48    20    67 1   
    49    20    68 1   
    50    21    22 1   
    51    21    69 1   
    52    21    70 1   
    53    22    23 1   
    54    22    71 1   
    55    23    24 1   
    56    23    72 1   
    57    23    73 1   
    58    24    25 ar  
    59    24    29 ar  
    60    25    26 ar  
    61    25    74 1   
    62    26    27 ar  
    63    26    75 1   
    64    27    28 ar  
    65    27    76 1   
    66    28    29 ar  
    67    28    77 1   
    68    29    78 1   
    69    30    79 1   
    70    31    32 1   
    71    32    33 1   
    72    32    35 1   
    73    32    80 1   
    74    33    34 1   
    75    33    81 1   
    76    34    82 1   
    77    35    36 1   
    78    35    39 1   
    79    36    37 2   
    80    36    83 1   
    81    37    38 1   
    82    38    39 ar  
    83    38    40 ar  
    84    39    44 ar  
    85    40    41 1   
    86    40    42 ar  
    87    41    84 1   
    88    41    85 1   
    89    42    43 ar  
    90    43    44 ar  
    91    43    86 1   
@<TRIPOS>SUBSTRUCTURE
     1 HDG         1 TEMP              0 ****  ****    0 ROOT
