@<TRIPOS>MOLECULE
HDG
   87    91     1     0     0
SMALL
abcg2


@<TRIPOS>ATOM
      1 C4          -2.1700    -1.9520    -1.1110 c3         1 HDG      -0.058700
      2 C3          -2.7780    -0.7610    -1.8600 c3         1 HDG      -0.079400
      3 C2          -3.7140     0.1050    -1.0420 c5         1 HDG       0.164300
      4 C5          -0.9440    -2.4970    -1.8530 c3         1 HDG      -0.070400
      5 C6           0.2530    -1.5530    -1.8320 c3         1 HDG      -0.067400
      6 C1          -4.2950     1.2880    -1.8130 c5         1 HDG       0.089300
      7 C8           2.6790    -1.2000    -2.2400 c          1 HDG       0.554100
      8 N1           3.2870    -1.3220    -1.0510 ns         1 HDG      -0.505900
      9 C9           4.3530    -0.4460    -0.6130 c3         1 HDG       0.103000
     10 C10          4.8300    -0.8470     0.7790 c3         1 HDG      -0.041100
     11 C11          5.9450     0.0440     1.2510 ca         1 HDG      -0.122300
     12 C17          5.6780     1.2980     1.8020 ca         1 HDG      -0.066500
     13 C16          6.6970     2.1410     2.2050 ca         1 HDG      -0.170000
     14 C14          8.0300     1.7480     2.0670 ca         1 HDG       0.143100
     15 O2           8.9600     2.6290     2.4870 os         1 HDG      -0.341100
     16 C15         10.3230     2.2710     2.3820 c3         1 HDG       0.147900
     17 C13          8.3160     0.5000     1.5210 ca         1 HDG      -0.170000
     18 C12          7.2750    -0.3310     1.1200 ca         1 HDG      -0.066500
     19 C7           1.5060    -2.1580    -2.4750 c3         1 HDG       0.088500
     20 N            1.2720    -2.4510    -3.8710 n8         1 HDG      -0.986200
     21 C18         -3.2290    -3.0370    -0.9120 c3         1 HDG       0.163800
     22 N2          -2.8030    -4.0670     0.0150 n7         1 HDG      -0.865400
     23 C19         -3.8500    -5.0240     0.3150 c3         1 HDG       0.207100
     24 C20         -3.3900    -6.0440     1.3230 ca         1 HDG      -0.091300
     25 C25         -2.7560    -5.6420     2.4980 ca         1 HDG      -0.097000
     26 C24         -2.3490    -6.5760     3.4390 ca         1 HDG      -0.115500
     27 C23         -2.5670    -7.9320     3.2190 ca         1 HDG      -0.108000
     28 C22         -3.1930    -8.3430     2.0510 ca         1 HDG      -0.115500
     29 C21         -3.5970    -7.4030     1.1100 ca         1 HDG      -0.097000
     30 O1          -5.4550     0.8980    -2.4930 oh         1 HDG      -0.708000
     31 O4          -3.0170     0.6950     0.0620 os         1 HDG      -0.444000
     32 C26         -3.3380     2.0420     0.2040 c5         1 HDG       0.323300
     33 C           -4.5420     2.3080    -0.6960 c5         1 HDG       0.102300
     34 O           -5.6930     1.9900     0.0360 oh         1 HDG      -0.702000
     35 N3          -2.1870     2.8520    -0.1930 na         1 HDG      -0.312300
     36 C31         -1.0050     2.4430    -0.7460 cc         1 HDG       0.410700
     37 N7          -0.1630     3.4160    -0.9470 nd         1 HDG      -0.553100
     38 C30         -0.8190     4.5300    -0.4960 ca         1 HDG      -0.099600
     39 C27         -2.0770     4.2000    -0.0180 ca         1 HDG       0.118500
     40 C29         -0.4640     5.8910    -0.4270 ca         1 HDG       0.451900
     41 N6           0.7140     6.3510    -0.8490 nv         1 HDG      -1.064900
     42 N5          -1.3550     6.7450     0.0890 nb         1 HDG      -0.304000
     43 C28         -2.5280     6.2810     0.5140 ca         1 HDG       0.181900
     44 N4          -2.9740     5.0380     0.5010 nb         1 HDG      -0.223000
     45 H1          -1.8450    -1.6220    -0.1170 hc         1 HDG       0.075700
     46 H2          -1.9890    -0.1220    -2.2670 hc         1 HDG       0.052200
     47 H3          -3.3360    -1.1260    -2.7290 hc         1 HDG       0.052200
     48 H4          -4.5420    -0.4950    -0.6450 h1         1 HDG       0.081700
     49 H5          -0.6250    -3.4380    -1.3940 hc         1 HDG       0.049700
     50 H6          -1.2180    -2.7340    -2.8840 hc         1 HDG       0.049700
     51 H7           0.0220    -0.6160    -2.3490 hc         1 HDG       0.046200
     52 H8           0.4780    -1.2870    -0.7950 hc         1 HDG       0.046200
     53 H9          -3.5430     1.6910    -2.5040 h1         1 HDG       0.058700
     54 H10          2.9610    -2.0300    -0.4130 hn         1 HDG       0.312500
     55 H11          5.1890    -0.4940    -1.3160 h1         1 HDG       0.057200
     56 H12          4.0070     0.5920    -0.6000 h1         1 HDG       0.057200
     57 H13          3.9900    -0.7980     1.4780 hc         1 HDG       0.048200
     58 H14          5.1670    -1.8870     0.7600 hc         1 HDG       0.048200
     59 H15          4.6510     1.6230     1.9240 ha         1 HDG       0.112500
     60 H16          6.4670     3.1080     2.6350 ha         1 HDG       0.123000
     61 H17         10.8950     3.1100     2.7710 h1         1 HDG       0.040700
     62 H18         10.5600     1.3820     2.9720 h1         1 HDG       0.040700
     63 H19         10.6230     2.0950     1.3450 h1         1 HDG       0.040700
     64 H20          9.3340     0.1550     1.3990 ha         1 HDG       0.123000
     65 H21          7.5200    -1.3000     0.7000 ha         1 HDG       0.112500
     66 H22          1.7250    -3.1030    -1.9660 h1         1 HDG       0.062700
     67 H23          1.1710    -1.5830    -4.3850 hn         1 HDG       0.409000
     68 H24          2.0790    -2.9160    -4.2670 hn         1 HDG       0.409000
     69 H26         -4.1360    -2.5880    -0.4960 h1         1 HDG       0.030200
     70 H27         -3.5180    -3.4390    -1.8980 h1         1 HDG       0.030200
     71 H28         -2.0130    -4.5700    -0.3690 hn         1 HDG       0.411000
     72 H30         -4.7000    -4.4710     0.7270 h1         1 HDG       0.036200
     73 H31         -4.2330    -5.5420    -0.5780 h1         1 HDG       0.036200
     74 H32         -2.5780    -4.5880     2.6730 ha         1 HDG       0.117500
     75 H33         -1.8610    -6.2460     4.3470 ha         1 HDG       0.111500
     76 H34         -2.2480    -8.6610     3.9540 ha         1 HDG       0.111000
     77 H35         -3.3620    -9.3960     1.8660 ha         1 HDG       0.111500
     78 H36         -4.0780    -7.7340     0.1960 ha         1 HDG       0.117500
     79 H37         -5.6410     1.5410    -3.1840 ho         1 HDG       0.517000
     80 H38         -3.5540     2.2760     1.2500 h2         1 HDG       0.123700
     81 H39         -4.5630     3.3410    -1.0630 h1         1 HDG       0.082700
     82 H40         -6.3700     1.7060    -0.5900 ho         1 HDG       0.524000
     83 H41         -0.8060     1.4080    -0.9730 h5         1 HDG       0.073800
     84 H42          0.9200     7.3340    -0.8120 hn         1 HDG       0.508000
     85 H43          1.3940     5.7360    -1.2620 hn         1 HDG       0.508000
     86 H44         -3.2020     7.0270     0.9220 h5         1 HDG       0.046100
     87 O3           3.0100    -0.3620    -3.0680 o          1 HDG      -0.609100
@<TRIPOS>BOND
     1     1     2 1   
     2     1     4 1   
     3     1    21 1   
     4     1    45 1   
     5     2     3 1   
     6     2    46 1   
     7     2    47 1   
     8     3     6 1   
     9     3    31 1   
    10     3    48 1   
    11     4     5 1   
    12     4    49 1   
    13     4    50 1   
    14     5    19 1   
    15     5    51 1   
    16     5    52 1   
    17     6    30 1   
    18     6    33 1   
    19     6    53 1   
    20     7     8 1   
    21     7    19 1   
    22     7    87 2   
    23     8     9 1   
    24     8    54 1   
    25     9    10 1   
    26     9    55 1   
    27     9    56 1   
    28    10    11 1   
    29    10    57 1   
    30    10    58 1   
    31    11    12 ar  
    32    11    18 ar  
    33    12    13 ar  
    34    12    59 1   
    35    13    14 ar  
    36    13    60 1   
    37    14    15 1   
    38    14    17 ar  
    39    15    16 1   
    40    16    61 1   
    41    16    62 1   
    42    16    63 1   
    43    17    18 ar  
    44    17    64 1   
    45    18    65 1   
    46    19    20 1   
    47    19    66 1   
    48    20    67 1   
    49    20    68 1   
    50    21    22 1   
    51    21    69 1   
    52    21    70 1   
    53    22    23 1   
    54    22    71 1   
    55    23    24 1   
    56    23    72 1   
    57    23    73 1   
    58    24    25 ar  
    59    24    29 ar  
    60    25    26 ar  
    61    25    74 1   
    62    26    27 ar  
    63    26    75 1   
    64    27    28 ar  
    65    27    76 1   
    66    28    29 ar  
    67    28    77 1   
    68    29    78 1   
    69    30    79 1   
    70    31    32 1   
    71    32    33 1   
    72    32    35 1   
    73    32    80 1   
    74    33    34 1   
    75    33    81 1   
    76    34    82 1   
    77    35    36 1   
    78    35    39 1   
    79    36    37 2   
    80    36    83 1   
    81    37    38 1   
    82    38    39 ar  
    83    38    40 ar  
    84    39    44 ar  
    85    40    41 1   
    86    40    42 ar  
    87    41    84 1   
    88    41    85 1   
    89    42    43 ar  
    90    43    44 ar  
    91    43    86 1   
@<TRIPOS>SUBSTRUCTURE
     1 HDG         1 TEMP              0 ****  ****    0 ROOT
