@<TRIPOS>MOLECULE
HDH
   19    19     1     0     0
SMALL
bcc


@<TRIPOS>ATOM
      1 C1          -2.5300    -0.2200     0.1660 ca         1 HDH       0.162100
      2 C2          -1.9820     1.0620     0.1870 ca         1 HDH      -0.206000
      3 C3          -0.6150     1.2310     0.0610 ca         1 HDH      -0.050000
      4 C4           0.2390     0.1380    -0.0680 ca         1 HDH      -0.196600
      5 C5          -0.3240    -1.1390    -0.0980 ca         1 HDH      -0.050000
      6 C6          -1.6900    -1.3220     0.0160 ca         1 HDH      -0.206000
      7 O7          -3.8480    -0.4490     0.2780 oh         1 HDH      -0.490100
      8 O10          2.1220     1.4530    -0.6520 o          1 HDH      -0.565100
      9 N9           2.4970    -0.6140     0.1980 ns         1 HDH      -0.477300
     10 N17          3.8740    -0.5190     0.1010 n8         1 HDH      -0.605800
     11 H1          -2.6230     1.9290     0.2990 ha         1 HDH       0.143000
     12 H2          -0.2070     2.2330     0.0720 ha         1 HDH       0.141500
     13 H3           0.2940    -2.0170    -0.2390 ha         1 HDH       0.141500
     14 H4          -2.1110    -2.3190    -0.0200 ha         1 HDH       0.143000
     15 H5          -4.3310     0.3800     0.3750 ho         1 HDH       0.431000
     16 H6           4.2730    -0.5220     1.0310 hn         1 HDH       0.339800
     17 H7           2.0990    -1.3990     0.6920 hn         1 HDH       0.298500
     18 H8           4.2220    -1.3390    -0.3790 hn         1 HDH       0.339800
     19 C8           1.7020     0.3950    -0.2090 c          1 HDH       0.706700
@<TRIPOS>BOND
     1     1     2 ar  
     2     1     6 ar  
     3     1     7 1   
     4     2     3 ar  
     5     2    11 1   
     6     3     4 ar  
     7     3    12 1   
     8     4     5 ar  
     9     4    19 1   
    10     5     6 ar  
    11     5    13 1   
    12     6    14 1   
    13     7    15 1   
    14     8    19 2   
    15     9    10 1   
    16     9    17 1   
    17     9    19 1   
    18    10    16 1   
    19    10    18 1   
@<TRIPOS>SUBSTRUCTURE
     1 HDH         1 TEMP              0 ****  ****    0 ROOT
