@<TRIPOS>MOLECULE
HDH
   19    19     1     0     0
SMALL
No Charge or Current Charge


@<TRIPOS>ATOM
      1 C1          -2.5820    -0.2360     0.1460 ca         1 HDH       0.162100
      2 C2          -2.0800     1.0670     0.0370 ca         1 HDH      -0.188000
      3 C3          -0.6910     1.2860    -0.0030 ca         1 HDH      -0.032000
      4 C4           0.2140     0.2020     0.0650 ca         1 HDH      -0.196600
      5 C5          -0.3100    -1.1100     0.1750 ca         1 HDH      -0.032000
      6 C6          -1.6990    -1.3210     0.2150 ca         1 HDH      -0.188000
      7 O7          -3.9250    -0.4560     0.1860 oh         1 HDH      -0.529100
      8 O10          2.1510     1.6140    -0.0770 o          1 HDH      -0.565100
      9 N9           2.5540    -0.6350     0.0900 ns         1 HDH      -0.410300
     10 N17          4.0160    -0.5860     0.0610 n8         1 HDH      -0.716200
     11 H1          -2.7560     1.9170    -0.0170 ha         1 HDH       0.125000
     12 H2          -0.3220     2.3070    -0.0880 ha         1 HDH       0.123500
     13 H3           0.3420    -1.9790     0.2310 ha         1 HDH       0.123500
     14 H4          -2.0910    -2.3310     0.2990 ha         1 HDH       0.125000
     15 H5          -4.3820     0.4100     0.1270 ho         1 HDH       0.470000
     16 H6           4.4250    -0.9960     0.9150 hn         1 HDH       0.395000
     17 H7           2.0960    -1.5420     0.1670 hn         1 HDH       0.298500
     18 H8           4.3960    -1.1230    -0.7340 hn         1 HDH       0.395000
     19 C8           1.7050     0.4760     0.0180 c          1 HDH       0.639700
@<TRIPOS>BOND
     1     1     2 ar  
     2     1     6 ar  
     3     1     7 1   
     4     2     3 ar  
     5     2    11 1   
     6     3     4 ar  
     7     3    12 1   
     8     4     5 ar  
     9     4    19 1   
    10     5     6 ar  
    11     5    13 1   
    12     6    14 1   
    13     7    15 1   
    14     8    19 2   
    15     9    10 1   
    16     9    17 1   
    17     9    19 1   
    18    10    16 1   
    19    10    18 1   
@<TRIPOS>SUBSTRUCTURE
     1 HDH         1 TEMP              0 ****  ****    0 ROOT
