@<TRIPOS>MOLECULE
HDI
   30    31     1     0     0
SMALL
No Charge or Current Charge


@<TRIPOS>ATOM
      1 C12         -0.8120    -1.1950     5.3770 c3         1 HDI       0.152900
      2 C11          0.6340     0.0810     3.9320 c          1 HDI       0.600100
      3 O3           1.0100     0.8000     4.8480 o          1 HDI      -0.477000
      4 O4          -0.2400    -0.9660     4.0760 os         1 HDI      -0.445100
      5 C10          1.1810     0.1790     2.5100 c3         1 HDI      -0.158400
      6 N1          -1.1470     0.7260     0.3710 n2         1 HDI      -0.267700
      7 O2          -0.8580     1.2080     1.6610 os         1 HDI      -0.267000
      8 C9           0.5700     1.3890     1.7650 c5         1 HDI       0.132300
      9 C8           1.0340     1.5160     0.2910 c5         1 HDI      -0.170700
     10 C7          -0.1110     0.7980    -0.3980 ce         1 HDI       0.366900
     11 C5          -1.1480    -0.5440    -2.2770 ca         1 HDI      -0.041500
     12 C6          -0.0750     0.2340    -1.7860 ca         1 HDI      -0.163900
     13 C1           1.0210     0.4970    -2.6370 ca         1 HDI      -0.041500
     14 C2           1.0490    -0.0210    -3.9440 ca         1 HDI      -0.183000
     15 C3          -0.0170    -0.7990    -4.4160 ca         1 HDI       0.156100
     16 C4          -1.1140    -1.0580    -3.5850 ca         1 HDI      -0.183000
     17 H121        -1.4930    -2.0550     5.3490 h1         1 HDI       0.048700
     18 H122        -0.0290    -1.4050     6.1180 h1         1 HDI       0.048700
     19 H123        -1.3830    -0.3200     5.7130 h1         1 HDI       0.048700
     20 H101         2.2680     0.3040     2.5650 hc         1 HDI       0.079200
     21 H102         0.9390    -0.7400     1.9630 hc         1 HDI       0.079200
     22 HC9          0.7800     2.3030     2.3390 h1         1 HDI       0.098700
     23 HC81         1.0860     2.5630    -0.0260 hc         1 HDI       0.075200
     24 HC82         2.0060     1.0490     0.1020 hc         1 HDI       0.075200
     25 HO1          0.8390    -1.0220    -6.1130 ho         1 HDI       0.467000
     26 HC1          1.8560     1.1050    -2.2950 ha         1 HDI       0.123500
     27 HC2          1.9030     0.1910    -4.5840 ha         1 HDI       0.125000
     28 HC4         -1.9420    -1.6590    -3.9520 ha         1 HDI       0.125000
     29 HC5         -2.0110    -0.7580    -1.6490 ha         1 HDI       0.123500
     30 O1           0.0040    -1.3030    -5.6820 oh         1 HDI      -0.527100
@<TRIPOS>BOND
     1     1     4 1   
     2     1    17 1   
     3     1    18 1   
     4     1    19 1   
     5     2     3 2   
     6     2     4 1   
     7     2     5 1   
     8     5     8 1   
     9     5    20 1   
    10     5    21 1   
    11     6     7 1   
    12     6    10 2   
    13     7     8 1   
    14     8     9 1   
    15     8    22 1   
    16     9    10 1   
    17     9    23 1   
    18     9    24 1   
    19    10    12 1   
    20    11    12 ar  
    21    11    16 ar  
    22    11    29 1   
    23    12    13 ar  
    24    13    14 ar  
    25    13    26 1   
    26    14    15 ar  
    27    14    27 1   
    28    15    16 ar  
    29    15    30 1   
    30    16    28 1   
    31    25    30 1   
@<TRIPOS>SUBSTRUCTURE
     1 HDI         1 TEMP              0 ****  ****    0 ROOT
