@<TRIPOS>MOLECULE
HDI
   30    31     1     0     0
SMALL
bcc


@<TRIPOS>ATOM
      1 C12         -0.3100    -1.1640     5.7950 c3         1 HDI       0.129700
      2 C11          0.2280     0.1490     3.9150 c          1 HDI       0.649100
      3 O3          -0.2220     1.1340     4.4440 o          1 HDI      -0.526000
      4 O4           0.2320    -1.0500     4.4790 os         1 HDI      -0.421900
      5 C10          0.8840     0.1240     2.5600 c3         1 HDI      -0.158400
      6 N1          -1.2020     0.7220     0.1940 n2         1 HDI      -0.366200
      7 O2          -0.9640     1.2080     1.4540 os         1 HDI      -0.145300
      8 C9           0.4580     1.2850     1.6800 c5         1 HDI       0.109100
      9 C8           1.0610     1.2020     0.2830 c5         1 HDI      -0.170700
     10 C7          -0.1230     0.6920    -0.4830 ce         1 HDI       0.366900
     11 C5          -1.2430    -0.1990    -2.5280 ca         1 HDI      -0.059500
     12 C6          -0.0880     0.2420    -1.8710 ca         1 HDI      -0.163900
     13 C1           1.1090     0.2500    -2.5820 ca         1 HDI      -0.059500
     14 C2           1.1640    -0.1680    -3.9020 ca         1 HDI      -0.201000
     15 C3           0.0080    -0.6050    -4.5410 ca         1 HDI       0.156100
     16 C4          -1.2010    -0.6170    -3.8410 ca         1 HDI      -0.201000
     17 H121        -0.2020    -2.2080     6.0720 h1         1 HDI       0.048700
     18 H122         0.2340    -0.5430     6.5060 h1         1 HDI       0.048700
     19 H123        -1.3660    -0.8930     5.8150 h1         1 HDI       0.048700
     20 H101         1.9670     0.1750     2.7180 hc         1 HDI       0.079200
     21 H102         0.6920    -0.8310     2.0650 hc         1 HDI       0.079200
     22 HC9          0.6630     2.2370     2.1680 h1         1 HDI       0.098700
     23 HC81         1.3780     2.1730    -0.1050 hc         1 HDI       0.075200
     24 HC82         1.9210     0.5330     0.2330 hc         1 HDI       0.075200
     25 HO1          0.8810    -0.9860    -6.1950 ho         1 HDI       0.428000
     26 HC1          2.0250     0.5840    -2.1110 ha         1 HDI       0.141500
     27 HC2          2.1110    -0.1530    -4.4310 ha         1 HDI       0.143000
     28 HC4         -2.1030    -0.9550    -4.3350 ha         1 HDI       0.143000
     29 HC5         -2.1890    -0.2140    -2.0020 ha         1 HDI       0.141500
     30 O1          -0.0050    -1.0240    -5.8180 oh         1 HDI      -0.488100
@<TRIPOS>BOND
     1     1     4 1   
     2     1    17 1   
     3     1    18 1   
     4     1    19 1   
     5     2     3 2   
     6     2     4 1   
     7     2     5 1   
     8     5     8 1   
     9     5    20 1   
    10     5    21 1   
    11     6     7 1   
    12     6    10 2   
    13     7     8 1   
    14     8     9 1   
    15     8    22 1   
    16     9    10 1   
    17     9    23 1   
    18     9    24 1   
    19    10    12 1   
    20    11    12 ar  
    21    11    16 ar  
    22    11    29 1   
    23    12    13 ar  
    24    13    14 ar  
    25    13    26 1   
    26    14    15 ar  
    27    14    27 1   
    28    15    16 ar  
    29    15    30 1   
    30    16    28 1   
    31    25    30 1   
@<TRIPOS>SUBSTRUCTURE
     1 HDI         1 TEMP              0 ****  ****    0 ROOT
