@<TRIPOS>MOLECULE
HDJ
   38    40     1     0     0
SMALL
No Charge or Current Charge


@<TRIPOS>ATOM
      1 C11          4.8770     1.0870     0.2800 ca         1 HDJ      -0.175500
      2 C12          3.4810     1.2010     0.3700 ca         1 HDJ       0.212000
      3 C13         -3.2280     0.6150     0.4020 cy         1 HDJ      -0.024400
      4 C14         -4.0430    -0.7320     0.4650 cy         1 HDJ       0.123500
      5 C16         -3.3300    -2.0210     0.9350 c3         1 HDJ       0.197600
      6 C17         -5.3450     1.6710    -0.7080 c1         1 HDJ       0.265900
      7 C1          -0.8830     0.7910     1.3650 ca         1 HDJ      -0.102000
      8 C10          5.4660    -0.0940    -0.2000 ca         1 HDJ      -0.014300
      9 C15         -4.0690     0.9350    -0.8920 cy         1 HDJ       0.221600
     10 C2          -1.7000     0.4890     0.2580 ca         1 HDJ      -0.077300
     11 C3          -1.0890     0.0650    -0.9410 ca         1 HDJ      -0.102000
     12 C35          6.9780    -0.2190    -0.2930 c3         1 HDJ      -0.053800
     13 C4           0.3090    -0.0470    -1.0280 ca         1 HDJ      -0.085500
     14 C5           1.1380     0.2580     0.0760 cp         1 HDJ      -0.022000
     15 C6           0.5150     0.6790     1.2740 ca         1 HDJ      -0.085500
     16 C7           2.6270     0.1370    -0.0180 cp         1 HDJ      -0.130000
     17 C8           3.2420    -1.0470    -0.4990 ca         1 HDJ       0.212000
     18 C9           4.6380    -1.1610    -0.5860 ca         1 HDJ      -0.175500
     19 F1           2.9610     2.3670     0.8170 f          1 HDJ      -0.169000
     20 F2           2.4890    -2.1100    -0.8620 f          1 HDJ      -0.169000
     21 F3          -4.2030    -3.0580     0.8490 f          1 HDJ      -0.268000
     22 N1          -4.2680    -0.5590    -1.0150 n6         1 HDJ      -0.850400
     23 H1           5.5000     1.9240     0.5840 ha         1 HDJ       0.137000
     24 H2          -3.4780     1.2860     1.2300 hc         1 HDJ       0.078700
     25 H3          -4.9550    -0.6050     1.0640 h1         1 HDJ       0.056700
     26 H4          -2.4600    -2.2250     0.2990 h1         1 HDJ       0.058200
     27 H5          -3.0080    -1.9040     1.9780 h1         1 HDJ       0.058200
     28 H6          -1.3300     1.1120     2.3030 ha         1 HDJ       0.123000
     29 H7          -3.5010     1.4250    -1.6920 h1         1 HDJ       0.107700
     30 H8          -1.6900    -0.1880    -1.8110 ha         1 HDJ       0.123000
     31 H9           7.3940    -0.6180     0.6390 hc         1 HDJ       0.050700
     32 H10          7.2750    -0.8900    -1.1080 hc         1 HDJ       0.050700
     33 H11          7.4490     0.7540    -0.4810 hc         1 HDJ       0.050700
     34 H12          0.7570    -0.3700    -1.9650 ha         1 HDJ       0.121000
     35 H13          1.1230     0.9120     2.1450 ha         1 HDJ       0.121000
     36 H14          5.0750    -2.0870    -0.9530 ha         1 HDJ       0.137000
     37 H15         -5.1640    -0.8790    -1.4080 hn         1 HDJ       0.440000
     38 N2          -6.3630     2.2180    -0.5470 n1         1 HDJ      -0.442000
@<TRIPOS>BOND
     1     1     2 ar  
     2     1     8 ar  
     3     1    23 1   
     4     2    16 ar  
     5     2    19 1   
     6     3     4 1   
     7     3     9 1   
     8     3    10 1   
     9     3    24 1   
    10     4     5 1   
    11     4    22 1   
    12     4    25 1   
    13     5    21 1   
    14     5    26 1   
    15     5    27 1   
    16     6     9 1   
    17     6    38 3   
    18     7    10 ar  
    19     7    15 ar  
    20     7    28 1   
    21     8    12 1   
    22     8    18 ar  
    23     9    22 1   
    24     9    29 1   
    25    10    11 ar  
    26    11    13 ar  
    27    11    30 1   
    28    12    31 1   
    29    12    32 1   
    30    12    33 1   
    31    13    14 ar  
    32    13    34 1   
    33    14    15 ar  
    34    14    16 1   
    35    15    35 1   
    36    16    17 ar  
    37    17    18 ar  
    38    17    20 1   
    39    18    36 1   
    40    22    37 1   
@<TRIPOS>SUBSTRUCTURE
     1 HDJ         1 TEMP              0 ****  ****    0 ROOT
