@<TRIPOS>MOLECULE
HDJ
   38    40     1     0     0
SMALL
abcg2


@<TRIPOS>ATOM
      1 C11          4.7900     1.1520     0.0560 ca         1 HDJ      -0.175500
      2 C12          3.4170     1.2380     0.1550 ca         1 HDJ       0.212000
      3 C13         -3.1880     0.5470     0.4830 cy         1 HDJ      -0.024400
      4 C14         -3.9730    -0.7890     0.3850 cy         1 HDJ       0.123500
      5 C16         -3.2400    -2.0790     0.6250 c3         1 HDJ       0.197600
      6 C17         -5.1230     1.7880    -0.5200 c1         1 HDJ       0.265900
      7 C1          -0.8760     0.8080     1.3920 ca         1 HDJ      -0.102000
      8 C10          5.3810    -0.0800    -0.2050 ca         1 HDJ      -0.014300
      9 C15         -3.9670     0.9360    -0.8040 cy         1 HDJ       0.221600
     10 C2          -1.7000     0.4650     0.3250 ca         1 HDJ      -0.077300
     11 C3          -1.1020     0.0290    -0.8560 ca         1 HDJ      -0.102000
     12 C35          6.8720    -0.2120    -0.2880 c3         1 HDJ      -0.053800
     13 C4           0.2750    -0.0660    -0.9590 ca         1 HDJ      -0.085500
     14 C5           1.0970     0.2700     0.1150 cp         1 HDJ      -0.022000
     15 C6           0.5030     0.7110     1.2930 ca         1 HDJ      -0.085500
     16 C7           2.5650     0.1520     0.0060 cp         1 HDJ      -0.130000
     17 C8           3.1960    -1.0570    -0.2540 ca         1 HDJ       0.212000
     18 C9           4.5640    -1.1950    -0.3630 ca         1 HDJ      -0.175500
     19 F1           2.8690     2.4380     0.3940 f          1 HDJ      -0.169000
     20 F2           2.4320    -2.1480    -0.3980 f          1 HDJ      -0.169000
     21 F3          -4.1230    -3.1370     0.4730 f          1 HDJ      -0.268000
     22 N1          -4.2790    -0.4720    -1.0120 n6         1 HDJ      -0.850400
     23 H1           5.3930     2.0420     0.1780 ha         1 HDJ       0.137000
     24 H2          -3.4390     1.1410     1.3600 hc         1 HDJ       0.078700
     25 H3          -4.8470    -0.7520     1.0470 h1         1 HDJ       0.056700
     26 H4          -2.4210    -2.2110    -0.0820 h1         1 HDJ       0.058200
     27 H5          -2.8380    -2.0990     1.6410 h1         1 HDJ       0.058200
     28 H6          -1.3140     1.1540     2.3200 ha         1 HDJ       0.123000
     29 H7          -3.3850     1.4060    -1.6020 h1         1 HDJ       0.107700
     30 H8          -1.7120    -0.2570    -1.7040 ha         1 HDJ       0.123000
     31 H9           7.2850    -0.5130     0.6760 hc         1 HDJ       0.050700
     32 H10          7.1670    -0.9650    -1.0170 hc         1 HDJ       0.050700
     33 H11          7.3430     0.7290    -0.5660 hc         1 HDJ       0.050700
     34 H12          0.7110    -0.3970    -1.8930 ha         1 HDJ       0.121000
     35 H13          1.1140     0.9680     2.1480 ha         1 HDJ       0.121000
     36 H14          4.9890    -2.1710    -0.5660 ha         1 HDJ       0.137000
     37 H15         -5.2030    -0.7020    -1.3530 hn         1 HDJ       0.440000
     38 N2          -6.0450     2.4420    -0.3040 n1         1 HDJ      -0.442000
@<TRIPOS>BOND
     1     1     2 ar  
     2     1     8 ar  
     3     1    23 1   
     4     2    16 ar  
     5     2    19 1   
     6     3     4 1   
     7     3     9 1   
     8     3    10 1   
     9     3    24 1   
    10     4     5 1   
    11     4    22 1   
    12     4    25 1   
    13     5    21 1   
    14     5    26 1   
    15     5    27 1   
    16     6     9 1   
    17     6    38 3   
    18     7    10 ar  
    19     7    15 ar  
    20     7    28 1   
    21     8    12 1   
    22     8    18 ar  
    23     9    22 1   
    24     9    29 1   
    25    10    11 ar  
    26    11    13 ar  
    27    11    30 1   
    28    12    31 1   
    29    12    32 1   
    30    12    33 1   
    31    13    14 ar  
    32    13    34 1   
    33    14    15 ar  
    34    14    16 1   
    35    15    35 1   
    36    16    17 ar  
    37    17    18 ar  
    38    17    20 1   
    39    18    36 1   
    40    22    37 1   
@<TRIPOS>SUBSTRUCTURE
     1 HDJ         1 TEMP              0 ****  ****    0 ROOT
