@<TRIPOS>MOLECULE
HDL
   21    20     1     0     0
SMALL
abcg2


@<TRIPOS>ATOM
      1 O1A         -2.9850     0.1070    -1.5710 o          1 HDL      -0.710500
      2 C1          -2.8730    -0.0300    -0.3450 c          1 HDL       0.702000
      3 O1B         -3.6580    -0.6080     0.4400 o          1 HDL      -0.710500
      4 C2          -1.6270     0.5860     0.3350 c3         1 HDL      -0.018700
      5 O2          -1.6770     0.3280     1.7170 oh         1 HDL      -0.783000
      6 C3          -0.3540    -0.0050    -0.2590 c3         1 HDL       0.147300
      7 O3          -0.2880    -1.3950    -0.0420 oh         1 HDL      -0.653000
      8 C4           0.9130     0.6650     0.2980 c3         1 HDL       0.063300
      9 O4           0.9730     2.0320    -0.0050 oh         1 HDL      -0.703000
     10 C5           2.1300    -0.0470    -0.2840 c          1 HDL       0.579100
     11 O5           2.4590     0.1120    -1.4470 o          1 HDL      -0.593100
     12 N6           2.7990    -0.8080     0.5940 ns         1 HDL      -0.378400
     13 O6           3.7760    -1.6520     0.1590 oh         1 HDL      -0.434100
     14 H2          -1.6340     1.6680     0.1410 h1         1 HDL       0.051700
     15 HO2         -2.5140    -0.1710     1.7980 ho         1 HDL       0.540000
     16 H3          -0.3760     0.1480    -1.3430 h1         1 HDL       0.098700
     17 HO3         -0.5000    -1.5520     0.8860 ho         1 HDL       0.441000
     18 H4           0.9100     0.5880     1.3910 h1         1 HDL       0.081700
     19 HO4          1.0410     2.1270    -0.9630 ho         1 HDL       0.515000
     20 H8           2.4240    -1.0330     1.5040 hn         1 HDL       0.332500
     21 H9           4.6130    -1.1950     0.3130 ho         1 HDL       0.432000
@<TRIPOS>BOND
     1     1     2 1   
     2     2     3 1   
     3     2     4 1   
     4     4     5 1   
     5     4     6 1   
     6     4    14 1   
     7     5    15 1   
     8     6     7 1   
     9     6     8 1   
    10     6    16 1   
    11     7    17 1   
    12     8     9 1   
    13     8    10 1   
    14     8    18 1   
    15     9    19 1   
    16    10    11 2   
    17    10    12 1   
    18    12    13 1   
    19    12    20 1   
    20    13    21 1   
@<TRIPOS>SUBSTRUCTURE
     1 HDL         1 TEMP              0 ****  ****    0 ROOT
