@<TRIPOS>MOLECULE
HDL
   21    20     1     0     0
SMALL
No Charge or Current Charge


@<TRIPOS>ATOM
      1 O1A         -2.9690     0.3730    -1.5940 o          1 HDL      -0.710500
      2 C1          -2.9560     0.1130    -0.3990 c          1 HDL       0.702000
      3 O1B         -3.9120    -0.3650     0.2010 o          1 HDL      -0.710500
      4 C2          -1.6680     0.4340     0.4440 c3         1 HDL      -0.018700
      5 O2          -1.7510    -0.0760     1.8180 oh         1 HDL      -0.783000
      6 C3          -0.3690    -0.0950    -0.2340 c3         1 HDL       0.147300
      7 O3          -0.2550    -1.4650     0.1580 oh         1 HDL      -0.653000
      8 C4           0.9150     0.6870     0.1820 c3         1 HDL       0.063300
      9 O4           0.8250     2.0810    -0.2380 oh         1 HDL      -0.703000
     10 C5           2.1930     0.0030    -0.3950 c          1 HDL       0.579100
     11 O5           2.5480     0.1660    -1.5600 o          1 HDL      -0.593100
     12 N6           2.9530    -0.7270     0.5170 ns         1 HDL      -0.378400
     13 O6           4.0430    -1.5720     0.0730 oh         1 HDL      -0.434100
     14 H2          -1.6220     1.5310     0.4660 h1         1 HDL       0.051700
     15 HO2         -2.7200    -0.2350     1.9750 ho         1 HDL       0.540000
     16 H3          -0.4660    -0.0160    -1.3270 h1         1 HDL       0.098700
     17 HO3         -0.7510    -1.4720     1.0140 ho         1 HDL       0.441000
     18 H4           0.9910     0.6420     1.2770 h1         1 HDL       0.081700
     19 HO4          1.1830     2.1300    -1.1580 ho         1 HDL       0.515000
     20 H8           2.5530    -0.9530     1.4270 hn         1 HDL       0.332500
     21 H9           4.7870    -1.3200     0.6690 ho         1 HDL       0.432000
@<TRIPOS>BOND
     1     1     2 1   
     2     2     3 1   
     3     2     4 1   
     4     4     5 1   
     5     4     6 1   
     6     4    14 1   
     7     5    15 1   
     8     6     7 1   
     9     6     8 1   
    10     6    16 1   
    11     7    17 1   
    12     8     9 1   
    13     8    10 1   
    14     8    18 1   
    15     9    19 1   
    16    10    11 2   
    17    10    12 1   
    18    12    13 1   
    19    12    20 1   
    20    13    21 1   
@<TRIPOS>SUBSTRUCTURE
     1 HDL         1 TEMP              0 ****  ****    0 ROOT
