@<TRIPOS>MOLECULE
HDN
    7     6     1     0     0
SMALL
No Charge or Current Charge


@<TRIPOS>ATOM
      1 N1           0.2390     0.4250    -0.9670 n2         1 HDN      -0.393400
      2 N2          -0.0940    -0.5170    -0.1990 n2         1 HDN      -0.216200
      3 C1          -0.2560    -0.0880     1.1940 c3         1 HDN       0.050100
      4 HN1          0.3290     0.0310    -1.9190 hn         1 HDN       0.384400
      5 H11          0.6800     0.3240     1.5940 h1         1 HDN       0.058700
      6 H12         -1.0360     0.6790     1.2850 h1         1 HDN       0.058700
      7 H13         -0.5460    -0.9370     1.8250 h1         1 HDN       0.058700
@<TRIPOS>BOND
     1     1     2 2   
     2     1     4 1   
     3     2     3 1   
     4     3     5 1   
     5     3     6 1   
     6     3     7 1   
@<TRIPOS>SUBSTRUCTURE
     1 HDN         1 TEMP              0 ****  ****    0 ROOT
