@<TRIPOS>MOLECULE
HDN
    7     6     1     0     0
SMALL
abcg2


@<TRIPOS>ATOM
      1 N1          -0.1180     0.3410    -1.0120 n2         1 HDN      -0.393400
      2 N2           0.2740    -0.4110    -0.1220 n2         1 HDN      -0.216200
      3 C1          -0.2010    -0.0520     1.1960 c3         1 HDN       0.050100
      4 HN1          0.2760    -0.0030    -1.8940 hn         1 HDN       0.384400
      5 H11          0.6660     0.1130     1.8370 h1         1 HDN       0.058700
      6 H12         -0.8410     0.8330     1.1990 h1         1 HDN       0.058700
      7 H13         -0.7410    -0.9050     1.6090 h1         1 HDN       0.058700
@<TRIPOS>BOND
     1     1     2 2   
     2     1     4 1   
     3     2     3 1   
     4     3     5 1   
     5     3     6 1   
     6     3     7 1   
@<TRIPOS>SUBSTRUCTURE
     1 HDN         1 TEMP              0 ****  ****    0 ROOT
