@<TRIPOS>MOLECULE
HDO
   38    37     1     0     0
SMALL
No Charge or Current Charge


@<TRIPOS>ATOM
      1 C02          5.4300    -1.1700     0.7920 c3         1 HDO       0.162600
      2 C03          4.5350    -0.3850    -0.1870 c3         1 HDO      -0.071400
      3 C04          3.3490     0.3260     0.5110 c3         1 HDO      -0.182400
      4 C05          2.4820     1.0890    -0.5000 c          1 HDO       0.570100
      5 C07          1.2430     0.3610    -1.0420 c3         1 HDO      -0.180400
      6 C08         -0.0210     0.7190    -0.2260 c3         1 HDO      -0.065400
      7 C09         -1.2880    -0.0050    -0.7310 c3         1 HDO      -0.076400
      8 C10         -2.5520     0.3510     0.0820 c3         1 HDO      -0.074400
      9 C11         -3.8190    -0.3740    -0.4240 c3         1 HDO      -0.074400
     10 C12         -5.0830    -0.0180     0.3890 c3         1 HDO      -0.075400
     11 C13         -6.3500    -0.7420    -0.1160 c3         1 HDO      -0.074400
     12 C14         -7.6120    -0.3870     0.6940 c3         1 HDO      -0.089100
     13 O01          6.4960    -1.7960     0.0740 oh         1 HDO      -0.658000
     14 O02          2.7630     2.2260    -0.8560 o          1 HDO      -0.514100
     15 H021         5.8320    -0.4820     1.5470 h1         1 HDO       0.012700
     16 H022         4.8250    -1.9270     1.3100 h1         1 HDO       0.012700
     17 H031         5.1470     0.3600    -0.7110 hc         1 HDO       0.066700
     18 H032         4.1480    -1.0750    -0.9490 hc         1 HDO       0.066700
     19 H042         2.7440    -0.4470     1.0000 hc         1 HDO       0.057700
     20 H041         3.7440     1.0300     1.2530 hc         1 HDO       0.057700
     21 H071         1.0850     0.6450    -2.0890 hc         1 HDO       0.057700
     22 H072         1.3930    -0.7230    -0.9570 hc         1 HDO       0.057700
     23 H082         0.1430     0.4630     0.8290 hc         1 HDO       0.052700
     24 H081        -0.1840     1.8030    -0.2690 hc         1 HDO       0.052700
     25 H092        -1.4530     0.2510    -1.7850 hc         1 HDO       0.035700
     26 H091        -1.1250    -1.0900    -0.6870 hc         1 HDO       0.035700
     27 H102        -2.3870     0.0950     1.1360 hc         1 HDO       0.039700
     28 H101        -2.7160     1.4350     0.0370 hc         1 HDO       0.039700
     29 H111        -3.9840    -0.1170    -1.4780 hc         1 HDO       0.036200
     30 H112        -3.6560    -1.4580    -0.3790 hc         1 HDO       0.036200
     31 H121        -4.9180    -0.2740     1.4430 hc         1 HDO       0.037700
     32 H122        -5.2470     1.0660     0.3440 hc         1 HDO       0.037700
     33 H131        -6.5200    -0.4860    -1.1700 hc         1 HDO       0.036200
     34 H132        -6.1920    -1.8270    -0.0720 hc         1 HDO       0.036200
     35 H142        -7.4870    -0.6640     1.7480 hc         1 HDO       0.031367
     36 H14         -7.8180     0.6880     0.6400 hc         1 HDO       0.031367
     37 H141        -8.4830    -0.9240     0.2990 hc         1 HDO       0.031367
     38 H011         7.0390    -2.2810     0.7360 ho         1 HDO       0.442000
@<TRIPOS>BOND
     1     1     2 1   
     2     1    13 1   
     3     1    15 1   
     4     1    16 1   
     5     2     3 1   
     6     2    17 1   
     7     2    18 1   
     8     3     4 1   
     9     3    19 1   
    10     3    20 1   
    11     4     5 1   
    12     4    14 2   
    13     5     6 1   
    14     5    21 1   
    15     5    22 1   
    16     6     7 1   
    17     6    23 1   
    18     6    24 1   
    19     7     8 1   
    20     7    25 1   
    21     7    26 1   
    22     8     9 1   
    23     8    27 1   
    24     8    28 1   
    25     9    10 1   
    26     9    29 1   
    27     9    30 1   
    28    10    11 1   
    29    10    31 1   
    30    10    32 1   
    31    11    12 1   
    32    11    33 1   
    33    11    34 1   
    34    12    35 1   
    35    12    36 1   
    36    12    37 1   
    37    13    38 1   
@<TRIPOS>SUBSTRUCTURE
     1 HDO         1 TEMP              0 ****  ****    0 ROOT
