@<TRIPOS>MOLECULE
HDO
   38    37     1     0     0
SMALL
abcg2


@<TRIPOS>ATOM
      1 C02          6.0890    -0.7270    -0.0100 c3         1 HDO       0.162600
      2 C03          4.8980     0.2120    -0.0070 c3         1 HDO      -0.071400
      3 C04          3.5960    -0.5710     0.0070 c3         1 HDO      -0.182400
      4 C05          2.3450     0.2730     0.0060 c          1 HDO       0.570100
      5 C07          1.0460    -0.4940     0.0140 c3         1 HDO      -0.180400
      6 C08         -0.2130     0.3580     0.0110 c3         1 HDO      -0.065400
      7 C09         -1.4770    -0.4940     0.0140 c3         1 HDO      -0.076400
      8 C10         -2.7540     0.3370     0.0120 c3         1 HDO      -0.074400
      9 C11         -4.0210    -0.5090     0.0130 c3         1 HDO      -0.074400
     10 C12         -5.2980     0.3220     0.0120 c3         1 HDO      -0.075400
     11 C13         -6.5680    -0.5190     0.0120 c3         1 HDO      -0.074400
     12 C14         -7.8340     0.3270     0.0090 c3         1 HDO      -0.089100
     13 O01          7.2750     0.0370    -0.0260 oh         1 HDO      -0.658000
     14 O02          2.3830     1.4830     0.0000 o          1 HDO      -0.514100
     15 H021         6.0420    -1.3750     0.8760 h1         1 HDO       0.012700
     16 H022         6.0270    -1.3880    -0.8850 h1         1 HDO       0.012700
     17 H031         4.9530     0.8650     0.8670 hc         1 HDO       0.066700
     18 H032         4.9410     0.8540    -0.8900 hc         1 HDO       0.066700
     19 H042         3.5400    -1.2450    -0.8560 hc         1 HDO       0.057700
     20 H041         3.5490    -1.2310     0.8800 hc         1 HDO       0.057700
     21 H071         1.0540    -1.1700    -0.8490 hc         1 HDO       0.057700
     22 H072         1.0580    -1.1580     0.8870 hc         1 HDO       0.057700
     23 H082        -0.2180     1.0170     0.8840 hc         1 HDO       0.052700
     24 H081        -0.2180     1.0100    -0.8670 hc         1 HDO       0.052700
     25 H092        -1.4730    -1.1560    -0.8590 hc         1 HDO       0.035700
     26 H091        -1.4730    -1.1500     0.8910 hc         1 HDO       0.035700
     27 H102        -2.7580     0.9970     0.8870 hc         1 HDO       0.039700
     28 H101        -2.7580     0.9950    -0.8640 hc         1 HDO       0.039700
     29 H111        -4.0170    -1.1700    -0.8610 hc         1 HDO       0.036200
     30 H112        -4.0170    -1.1670     0.8900 hc         1 HDO       0.036200
     31 H121        -5.3020     0.9820     0.8870 hc         1 HDO       0.037700
     32 H122        -5.3010     0.9820    -0.8630 hc         1 HDO       0.037700
     33 H131        -6.5650    -1.1780    -0.8630 hc         1 HDO       0.036200
     34 H132        -6.5670    -1.1770     0.8860 hc         1 HDO       0.036200
     35 H142        -7.8770     0.9720     0.8900 hc         1 HDO       0.031367
     36 H14         -7.8740     0.9710    -0.8710 hc         1 HDO       0.031367
     37 H141        -8.7330    -0.2900     0.0070 hc         1 HDO       0.031367
     38 H011         8.0220    -0.5680    -0.0330 ho         1 HDO       0.442000
@<TRIPOS>BOND
     1     1     2 1   
     2     1    13 1   
     3     1    15 1   
     4     1    16 1   
     5     2     3 1   
     6     2    17 1   
     7     2    18 1   
     8     3     4 1   
     9     3    19 1   
    10     3    20 1   
    11     4     5 1   
    12     4    14 2   
    13     5     6 1   
    14     5    21 1   
    15     5    22 1   
    16     6     7 1   
    17     6    23 1   
    18     6    24 1   
    19     7     8 1   
    20     7    25 1   
    21     7    26 1   
    22     8     9 1   
    23     8    27 1   
    24     8    28 1   
    25     9    10 1   
    26     9    29 1   
    27     9    30 1   
    28    10    11 1   
    29    10    31 1   
    30    10    32 1   
    31    11    12 1   
    32    11    33 1   
    33    11    34 1   
    34    12    35 1   
    35    12    36 1   
    36    12    37 1   
    37    13    38 1   
@<TRIPOS>SUBSTRUCTURE
     1 HDO         1 TEMP              0 ****  ****    0 ROOT
