@<TRIPOS>MOLECULE
HDR
   53    52     1     0     0
SMALL
bcc


@<TRIPOS>ATOM
      1 C1          -7.0390     0.6290    -0.0830 c3         1 HDR      -0.051100
      2 C2          -5.8040    -0.2050     0.2180 c3         1 HDR      -0.054400
      3 C3          -4.5250     0.5820    -0.0500 c3         1 HDR      -0.071400
      4 C4          -3.2670    -0.2430     0.1870 c3         1 HDR      -0.076400
      5 C5          -1.9840     0.5420    -0.0590 c3         1 HDR      -0.074400
      6 C6          -0.7230    -0.2850     0.1570 c3         1 HDR      -0.074400
      7 C7           0.5600     0.5000    -0.0840 c3         1 HDR      -0.074400
      8 C8           1.8210    -0.3280     0.1260 c3         1 HDR      -0.074400
      9 C9           3.1050     0.4570    -0.1100 c3         1 HDR      -0.074400
     10 C10          4.3660    -0.3720     0.0990 c3         1 HDR      -0.074400
     11 C11          5.6500     0.4150    -0.1350 c3         1 HDR      -0.074400
     12 C12          6.9120    -0.4120     0.0810 c3         1 HDR      -0.074400
     13 C13          8.1950     0.3760    -0.1490 c3         1 HDR      -0.074400
     14 C14          9.4570    -0.4470     0.0800 c3         1 HDR      -0.075400
     15 C15         10.7410     0.3400    -0.1510 c3         1 HDR      -0.074400
     16 C16         11.9950    -0.4860     0.1030 c3         1 HDR      -0.088100
     17 S1          -8.5410    -0.2840     0.3340 s4         1 HDR       0.460700
     18 O1S         -8.5190    -1.5090    -0.5090 o          1 HDR      -0.494200
     19 O2S         -9.5420     0.8200    -0.3730 oh         1 HDR      -0.581800
     20 H11         -7.0570     1.5440     0.5120 h1         1 HDR       0.086700
     21 H12         -7.0990     0.8920    -1.1420 h1         1 HDR       0.086700
     22 H21         -5.8140    -1.1070    -0.3980 hc         1 HDR       0.048200
     23 H22         -5.8140    -0.5320     1.2620 hc         1 HDR       0.048200
     24 H31         -4.5060     1.4700     0.5900 hc         1 HDR       0.039700
     25 H32         -4.5320     0.9470    -1.0820 hc         1 HDR       0.039700
     26 H41         -3.2830    -1.1230    -0.4650 hc         1 HDR       0.038700
     27 H42         -3.2680    -0.6240     1.2140 hc         1 HDR       0.038700
     28 H51         -1.9640     1.4160     0.6010 hc         1 HDR       0.037200
     29 H52         -1.9900     0.9340    -1.0820 hc         1 HDR       0.037200
     30 H61         -0.7430    -1.1570    -0.5060 hc         1 HDR       0.037700
     31 H62         -0.7190    -0.6810     1.1790 hc         1 HDR       0.037700
     32 H71          0.5820     1.3700     0.5830 hc         1 HDR       0.037200
     33 H72          0.5540     0.9000    -1.1040 hc         1 HDR       0.037200
     34 H81          1.8000    -1.1960    -0.5430 hc         1 HDR       0.037200
     35 H82          1.8250    -0.7320     1.1450 hc         1 HDR       0.037200
     36 H91          3.1260     1.3250     0.5590 hc         1 HDR       0.037200
     37 H92          3.1010     0.8610    -1.1290 hc         1 HDR       0.037200
     38 H101         4.3460    -1.2390    -0.5710 hc         1 HDR       0.037200
     39 H102         4.3690    -0.7760     1.1180 hc         1 HDR       0.037200
     40 H111         5.6680     1.2840     0.5320 hc         1 HDR       0.037200
     41 H112         5.6490     0.8160    -1.1550 hc         1 HDR       0.037200
     42 H121         6.8950    -1.2800    -0.5860 hc         1 HDR       0.037200
     43 H122         6.9110    -0.8140     1.1010 hc         1 HDR       0.037200
     44 H131         8.2070     1.2480     0.5130 hc         1 HDR       0.036700
     45 H132         8.1990     0.7720    -1.1710 hc         1 HDR       0.036700
     46 H141         9.4460    -1.3210    -0.5810 hc         1 HDR       0.036700
     47 H142         9.4520    -0.8400     1.1020 hc         1 HDR       0.036700
     48 H151        10.7480     1.2210     0.4980 hc         1 HDR       0.036700
     49 H152        10.7530     0.7200    -1.1770 hc         1 HDR       0.036700
     50 H161        12.0250    -0.8490     1.1320 hc         1 HDR       0.031367
     51 H162        12.0350    -1.3570    -0.5540 hc         1 HDR       0.031367
     52 H163        12.9010     0.0970    -0.0670 hc         1 HDR       0.031367
     53 HOS2       -10.3990     0.7940     0.0760 ho         1 HDR       0.438000
@<TRIPOS>BOND
     1     1     2 1   
     2     1    17 1   
     3     1    20 1   
     4     1    21 1   
     5     2     3 1   
     6     2    22 1   
     7     2    23 1   
     8     3     4 1   
     9     3    24 1   
    10     3    25 1   
    11     4     5 1   
    12     4    26 1   
    13     4    27 1   
    14     5     6 1   
    15     5    28 1   
    16     5    29 1   
    17     6     7 1   
    18     6    30 1   
    19     6    31 1   
    20     7     8 1   
    21     7    32 1   
    22     7    33 1   
    23     8     9 1   
    24     8    34 1   
    25     8    35 1   
    26     9    10 1   
    27     9    36 1   
    28     9    37 1   
    29    10    11 1   
    30    10    38 1   
    31    10    39 1   
    32    11    12 1   
    33    11    40 1   
    34    11    41 1   
    35    12    13 1   
    36    12    42 1   
    37    12    43 1   
    38    13    14 1   
    39    13    44 1   
    40    13    45 1   
    41    14    15 1   
    42    14    46 1   
    43    14    47 1   
    44    15    16 1   
    45    15    48 1   
    46    15    49 1   
    47    16    50 1   
    48    16    51 1   
    49    16    52 1   
    50    17    18 2   
    51    17    19 1   
    52    19    53 1   
@<TRIPOS>SUBSTRUCTURE
     1 HDR         1 TEMP              0 ****  ****    0 ROOT
