@<TRIPOS>MOLECULE
HDR
   53    52     1     0     0
SMALL
No Charge or Current Charge


@<TRIPOS>ATOM
      1 C1          -7.1930     0.5660    -0.0760 c3         1 HDR      -0.051100
      2 C2          -5.9170    -0.2690     0.1670 c3         1 HDR      -0.054400
      3 C3          -4.6210     0.5320    -0.0840 c3         1 HDR      -0.071400
      4 C4          -3.3410    -0.2970     0.1570 c3         1 HDR      -0.076400
      5 C5          -2.0450     0.5050    -0.0950 c3         1 HDR      -0.074400
      6 C6          -0.7650    -0.3240     0.1470 c3         1 HDR      -0.074400
      7 C7           0.5310     0.4780    -0.1060 c3         1 HDR      -0.074400
      8 C8           1.8110    -0.3510     0.1360 c3         1 HDR      -0.074400
      9 C9           3.1070     0.4510    -0.1160 c3         1 HDR      -0.074400
     10 C10          4.3880    -0.3770     0.1260 c3         1 HDR      -0.074400
     11 C11          5.6830     0.4250    -0.1260 c3         1 HDR      -0.074400
     12 C12          6.9640    -0.4040     0.1160 c3         1 HDR      -0.074400
     13 C13          8.2590     0.3980    -0.1360 c3         1 HDR      -0.074400
     14 C14          9.5400    -0.4300     0.1070 c3         1 HDR      -0.075400
     15 C15         10.8350     0.3710    -0.1450 c3         1 HDR      -0.074400
     16 C16         12.1130    -0.4550     0.0960 c3         1 HDR      -0.088100
     17 S1          -8.7210    -0.4230     0.2520 s4         1 HDR       0.487500
     18 O1S         -8.7840    -1.5080    -0.7980 o          1 HDR      -0.521000
     19 O2S         -9.6970     0.8670    -0.2450 oh         1 HDR      -0.620800
     20 H11         -7.2030     1.4370     0.5900 h1         1 HDR       0.086700
     21 H12         -7.2300     0.9070    -1.1180 h1         1 HDR       0.086700
     22 H21         -5.9300    -1.1490    -0.4880 hc         1 HDR       0.048200
     23 H22         -5.9190    -0.6380     1.2010 hc         1 HDR       0.048200
     24 H31         -4.6090     1.4130     0.5700 hc         1 HDR       0.039700
     25 H32         -4.6220     0.9020    -1.1180 hc         1 HDR       0.039700
     26 H41         -3.3520    -1.1770    -0.4980 hc         1 HDR       0.038700
     27 H42         -3.3400    -0.6660     1.1900 hc         1 HDR       0.038700
     28 H51         -2.0330     1.3850     0.5600 hc         1 HDR       0.037200
     29 H52         -2.0450     0.8740    -1.1280 hc         1 HDR       0.037200
     30 H61         -0.7760    -1.2040    -0.5090 hc         1 HDR       0.037700
     31 H62         -0.7640    -0.6930     1.1800 hc         1 HDR       0.037700
     32 H71          0.5430     1.3580     0.5490 hc         1 HDR       0.037200
     33 H72          0.5310     0.8470    -1.1390 hc         1 HDR       0.037200
     34 H81          1.8000    -1.2310    -0.5190 hc         1 HDR       0.037200
     35 H82          1.8120    -0.7200     1.1700 hc         1 HDR       0.037200
     36 H91          3.1190     1.3320     0.5390 hc         1 HDR       0.037200
     37 H92          3.1070     0.8210    -1.1490 hc         1 HDR       0.037200
     38 H101         4.3760    -1.2580    -0.5290 hc         1 HDR       0.037200
     39 H102         4.3880    -0.7470     1.1590 hc         1 HDR       0.037200
     40 H111         5.6950     1.3050     0.5290 hc         1 HDR       0.037200
     41 H112         5.6830     0.7940    -1.1590 hc         1 HDR       0.037200
     42 H121         6.9520    -1.2840    -0.5390 hc         1 HDR       0.037200
     43 H122         6.9640    -0.7730     1.1500 hc         1 HDR       0.037200
     44 H131         8.2710     1.2790     0.5190 hc         1 HDR       0.036700
     45 H132         8.2590     0.7670    -1.1690 hc         1 HDR       0.036700
     46 H141         9.5290    -1.3110    -0.5480 hc         1 HDR       0.036700
     47 H142         9.5400    -0.8000     1.1400 hc         1 HDR       0.036700
     48 H151        10.8520     1.2520     0.5090 hc         1 HDR       0.036700
     49 H152        10.8400     0.7410    -1.1780 hc         1 HDR       0.036700
     50 H161        12.1560    -0.8100     1.1330 hc         1 HDR       0.031367
     51 H162        12.1440    -1.3260    -0.5700 hc         1 HDR       0.031367
     52 H163        13.0050     0.1550    -0.0950 hc         1 HDR       0.031367
     53 HOS2        -9.6230     1.5340     0.4700 ho         1 HDR       0.477000
@<TRIPOS>BOND
     1     1     2 1   
     2     1    17 1   
     3     1    20 1   
     4     1    21 1   
     5     2     3 1   
     6     2    22 1   
     7     2    23 1   
     8     3     4 1   
     9     3    24 1   
    10     3    25 1   
    11     4     5 1   
    12     4    26 1   
    13     4    27 1   
    14     5     6 1   
    15     5    28 1   
    16     5    29 1   
    17     6     7 1   
    18     6    30 1   
    19     6    31 1   
    20     7     8 1   
    21     7    32 1   
    22     7    33 1   
    23     8     9 1   
    24     8    34 1   
    25     8    35 1   
    26     9    10 1   
    27     9    36 1   
    28     9    37 1   
    29    10    11 1   
    30    10    38 1   
    31    10    39 1   
    32    11    12 1   
    33    11    40 1   
    34    11    41 1   
    35    12    13 1   
    36    12    42 1   
    37    12    43 1   
    38    13    14 1   
    39    13    44 1   
    40    13    45 1   
    41    14    15 1   
    42    14    46 1   
    43    14    47 1   
    44    15    16 1   
    45    15    48 1   
    46    15    49 1   
    47    16    50 1   
    48    16    51 1   
    49    16    52 1   
    50    17    18 2   
    51    17    19 1   
    52    19    53 1   
@<TRIPOS>SUBSTRUCTURE
     1 HDR         1 TEMP              0 ****  ****    0 ROOT
