@<TRIPOS>MOLECULE
HDS
   53    52     1     0     0
SMALL
No Charge or Current Charge


@<TRIPOS>ATOM
      1 C1           0.7720     0.0150    -6.7020 c3         1 HDS      -0.356400
      2 C2          -0.1280     0.0080    -5.4410 c3         1 HDS      -0.031400
      3 C3           0.6910     0.0150    -4.1330 c3         1 HDS      -0.072400
      4 C4          -0.1920     0.0080    -2.8650 c3         1 HDS      -0.076400
      5 C5           0.6290     0.0140    -1.5570 c3         1 HDS      -0.074400
      6 C6          -0.2540     0.0070    -0.2890 c3         1 HDS      -0.075400
      7 C7           0.5670     0.0140     1.0190 c3         1 HDS      -0.074400
      8 C8          -0.3160     0.0070     2.2860 c3         1 HDS      -0.074400
      9 C9           0.5050     0.0130     3.5950 c3         1 HDS      -0.074400
     10 C10         -0.3770     0.0060     4.8620 c3         1 HDS      -0.074400
     11 C11          0.4430     0.0130     6.1700 c3         1 HDS      -0.074400
     12 C12         -0.4390     0.0060     7.4370 c3         1 HDS      -0.074400
     13 C13          0.3820     0.0130     8.7460 c3         1 HDS      -0.074400
     14 C14         -0.5010     0.0060    10.0130 c3         1 HDS      -0.075400
     15 C15          0.3200     0.0130    11.3210 c3         1 HDS      -0.075400
     16 C16         -0.5610     0.0070    12.5860 c3         1 HDS      -0.088100
     17 S1          -0.1490     0.0080    -8.2640 s6         1 HDS       1.321600
     18 O1S         -0.9310    -1.2360    -8.2100 o          1 HDS      -0.699200
     19 O2S         -0.9510     1.2390    -8.2100 o          1 HDS      -0.699200
     20 O3S          0.9100     0.0170    -9.2840 o          1 HDS      -0.699200
     21 H11          1.3990     0.9130    -6.7170 h1         1 HDS       0.061700
     22 H12          1.4130    -0.8720    -6.7170 h1         1 HDS       0.061700
     23 H21         -0.7730    -0.8790    -5.4550 hc         1 HDS       0.046700
     24 H22         -0.7880     0.8850    -5.4550 hc         1 HDS       0.046700
     25 H31          1.3360     0.9020    -4.1170 hc         1 HDS       0.028200
     26 H32          1.3500    -0.8620    -4.1170 hc         1 HDS       0.028200
     27 H41         -0.8370    -0.8790    -2.8800 hc         1 HDS       0.035200
     28 H42         -0.8520     0.8840    -2.8800 hc         1 HDS       0.035200
     29 H51          1.2740     0.9020    -1.5410 hc         1 HDS       0.032700
     30 H52          1.2890    -0.8620    -1.5410 hc         1 HDS       0.032700
     31 H61         -0.8990    -0.8800    -0.3050 hc         1 HDS       0.035700
     32 H62         -0.9140     0.8840    -0.3050 hc         1 HDS       0.035700
     33 H71          1.2120     0.9010     1.0350 hc         1 HDS       0.034700
     34 H72          1.2270    -0.8630     1.0350 hc         1 HDS       0.034700
     35 H81         -0.9610    -0.8810     2.2710 hc         1 HDS       0.036200
     36 H82         -0.9750     0.8830     2.2710 hc         1 HDS       0.036200
     37 H91          1.1510     0.9010     3.6100 hc         1 HDS       0.035700
     38 H92          1.1650    -0.8630     3.6100 hc         1 HDS       0.035700
     39 H101        -1.0230    -0.8810     4.8460 hc         1 HDS       0.036700
     40 H102        -1.0370     0.8830     4.8460 hc         1 HDS       0.036700
     41 H111         1.0890     0.9000     6.1860 hc         1 HDS       0.036700
     42 H112         1.1030    -0.8640     6.1860 hc         1 HDS       0.036700
     43 H121        -1.0850    -0.8810     7.4220 hc         1 HDS       0.036700
     44 H122        -1.0990     0.8830     7.4220 hc         1 HDS       0.036700
     45 H131         1.0270     0.9000     8.7610 hc         1 HDS       0.036700
     46 H132         1.0410    -0.8640     8.7620 hc         1 HDS       0.036700
     47 H141        -1.1460    -0.8810     9.9980 hc         1 HDS       0.036700
     48 H142        -1.1610     0.8830     9.9970 hc         1 HDS       0.036700
     49 H151         0.9650     0.9000    11.3410 hc         1 HDS       0.035700
     50 H152         0.9790    -0.8630    11.3420 hc         1 HDS       0.035700
     51 H161         0.0650     0.0120    13.4870 hc         1 HDS       0.030033
     52 H162        -1.2080     0.8910    12.6130 hc         1 HDS       0.030033
     53 H163        -1.1940    -0.8880    12.6130 hc         1 HDS       0.030033
@<TRIPOS>BOND
     1     1     2 1   
     2     1    17 1   
     3     1    21 1   
     4     1    22 1   
     5     2     3 1   
     6     2    23 1   
     7     2    24 1   
     8     3     4 1   
     9     3    25 1   
    10     3    26 1   
    11     4     5 1   
    12     4    27 1   
    13     4    28 1   
    14     5     6 1   
    15     5    29 1   
    16     5    30 1   
    17     6     7 1   
    18     6    31 1   
    19     6    32 1   
    20     7     8 1   
    21     7    33 1   
    22     7    34 1   
    23     8     9 1   
    24     8    35 1   
    25     8    36 1   
    26     9    10 1   
    27     9    37 1   
    28     9    38 1   
    29    10    11 1   
    30    10    39 1   
    31    10    40 1   
    32    11    12 1   
    33    11    41 1   
    34    11    42 1   
    35    12    13 1   
    36    12    43 1   
    37    12    44 1   
    38    13    14 1   
    39    13    45 1   
    40    13    46 1   
    41    14    15 1   
    42    14    47 1   
    43    14    48 1   
    44    15    16 1   
    45    15    49 1   
    46    15    50 1   
    47    16    51 1   
    48    16    52 1   
    49    16    53 1   
    50    17    18 1   
    51    17    19 1   
    52    17    20 1   
@<TRIPOS>SUBSTRUCTURE
     1 HDS         1 TEMP              0 ****  ****    0 ROOT
