@<TRIPOS>MOLECULE
HDS
   53    52     1     0     0
SMALL
abcg2


@<TRIPOS>ATOM
      1 C1           0.7880     0.0380    -6.5650 c3         1 HDS      -0.356400
      2 C2          -0.1200     0.0170    -5.3460 c3         1 HDS      -0.031400
      3 C3           0.6780    -0.0250    -4.0480 c3         1 HDS      -0.072400
      4 C4          -0.2040    -0.0480    -2.8060 c3         1 HDS      -0.076400
      5 C5           0.5960    -0.0540    -1.5100 c3         1 HDS      -0.074400
      6 C6          -0.2740    -0.0690    -0.2590 c3         1 HDS      -0.075400
      7 C7           0.5350    -0.0430     1.0320 c3         1 HDS      -0.074400
      8 C8          -0.3290    -0.0580     2.2880 c3         1 HDS      -0.074400
      9 C9           0.4840    -0.0140     3.5750 c3         1 HDS      -0.074400
     10 C10         -0.3760    -0.0280     4.8330 c3         1 HDS      -0.074400
     11 C11          0.4380     0.0110     6.1200 c3         1 HDS      -0.074400
     12 C12         -0.4220    -0.0010     7.3770 c3         1 HDS      -0.074400
     13 C13          0.3900     0.0440     8.6650 c3         1 HDS      -0.074400
     14 C14         -0.4730     0.0320     9.9210 c3         1 HDS      -0.075400
     15 C15          0.3350     0.0750    11.2120 c3         1 HDS      -0.075400
     16 C16         -0.5430     0.0590    12.4560 c3         1 HDS      -0.088100
     17 S1          -0.1060     0.1590    -8.1220 s6         1 HDS       1.321600
     18 O1S         -0.9760    -1.0340    -8.1870 o          1 HDS      -0.699200
     19 O2S         -0.8710     1.4220    -8.0500 o          1 HDS      -0.699200
     20 O3S          0.9330     0.1720    -9.1720 o          1 HDS      -0.699200
     21 H11          1.4700     0.8910    -6.5240 h1         1 HDS       0.061700
     22 H12          1.3980    -0.8670    -6.6120 h1         1 HDS       0.061700
     23 H21         -0.7840    -0.8500    -5.3980 hc         1 HDS       0.046700
     24 H22         -0.7590     0.9040    -5.3510 hc         1 HDS       0.046700
     25 H31          1.3420     0.8450    -4.0030 hc         1 HDS       0.028200
     26 H32          1.3300    -0.9060    -4.0470 hc         1 HDS       0.028200
     27 H41         -0.8560    -0.9280    -2.8380 hc         1 HDS       0.035200
     28 H42         -0.8690     0.8230    -2.8180 hc         1 HDS       0.035200
     29 H51          1.2490     0.8260    -1.4850 hc         1 HDS       0.032700
     30 H52          1.2620    -0.9240    -1.4980 hc         1 HDS       0.032700
     31 H61         -0.9140    -0.9580    -0.2710 hc         1 HDS       0.035700
     32 H62         -0.9520     0.7920    -0.2790 hc         1 HDS       0.035700
     33 H71          1.1720     0.8480     1.0420 hc         1 HDS       0.034700
     34 H72          1.2160    -0.9010     1.0500 hc         1 HDS       0.034700
     35 H81         -0.9580    -0.9560     2.2850 hc         1 HDS       0.036200
     36 H82         -1.0180     0.7940     2.2640 hc         1 HDS       0.036200
     37 H91          1.1130     0.8830     3.5770 hc         1 HDS       0.035700
     38 H92          1.1740    -0.8660     3.5990 hc         1 HDS       0.035700
     39 H101        -1.0090    -0.9230     4.8310 hc         1 HDS       0.036700
     40 H102        -1.0620     0.8270     4.8120 hc         1 HDS       0.036700
     41 H111         1.0710     0.9060     6.1220 hc         1 HDS       0.036700
     42 H112         1.1240    -0.8430     6.1420 hc         1 HDS       0.036700
     43 H121        -1.0520    -0.8980     7.3770 hc         1 HDS       0.036700
     44 H122        -1.1110     0.8510     7.3530 hc         1 HDS       0.036700
     45 H131         1.0200     0.9410     8.6660 hc         1 HDS       0.036700
     46 H132         1.0790    -0.8080     8.6910 hc         1 HDS       0.036700
     47 H141        -1.1040    -0.8650     9.9190 hc         1 HDS       0.036700
     48 H142        -1.1610     0.8840     9.8960 hc         1 HDS       0.036700
     49 H151         0.9630     0.9720    11.2170 hc         1 HDS       0.035700
     50 H152         1.0230    -0.7760    11.2370 hc         1 HDS       0.035700
     51 H161         0.0500     0.0880    13.3710 hc         1 HDS       0.030033
     52 H162        -1.2170     0.9180    12.4720 hc         1 HDS       0.030033
     53 H163        -1.1590    -0.8420    12.4900 hc         1 HDS       0.030033
@<TRIPOS>BOND
     1     1     2 1   
     2     1    17 1   
     3     1    21 1   
     4     1    22 1   
     5     2     3 1   
     6     2    23 1   
     7     2    24 1   
     8     3     4 1   
     9     3    25 1   
    10     3    26 1   
    11     4     5 1   
    12     4    27 1   
    13     4    28 1   
    14     5     6 1   
    15     5    29 1   
    16     5    30 1   
    17     6     7 1   
    18     6    31 1   
    19     6    32 1   
    20     7     8 1   
    21     7    33 1   
    22     7    34 1   
    23     8     9 1   
    24     8    35 1   
    25     8    36 1   
    26     9    10 1   
    27     9    37 1   
    28     9    38 1   
    29    10    11 1   
    30    10    39 1   
    31    10    40 1   
    32    11    12 1   
    33    11    41 1   
    34    11    42 1   
    35    12    13 1   
    36    12    43 1   
    37    12    44 1   
    38    13    14 1   
    39    13    45 1   
    40    13    46 1   
    41    14    15 1   
    42    14    47 1   
    43    14    48 1   
    44    15    16 1   
    45    15    49 1   
    46    15    50 1   
    47    16    51 1   
    48    16    52 1   
    49    16    53 1   
    50    17    18 1   
    51    17    19 1   
    52    17    20 1   
@<TRIPOS>SUBSTRUCTURE
     1 HDS         1 TEMP              0 ****  ****    0 ROOT
