@<TRIPOS>MOLECULE
HDT
   40    43     1     0     0
SMALL
No Charge or Current Charge


@<TRIPOS>ATOM
      1 C22         -1.6220     0.0750     2.8960 ca         1 HDT      -0.184500
      2 N1           0.1220     0.0190    -5.2090 na         1 HDT       0.154100
      3 C2           1.4840     0.2970    -5.3710 cc         1 HDT      -0.112000
      4 C6          -0.8350     0.3490    -6.1250 cc         1 HDT      -0.063000
      5 C5          -0.4670     0.7830    -7.4270 cc         1 HDT      -0.075000
      6 C4           0.8710     0.9360    -7.7090 cd         1 HDT      -0.097000
      7 C3           1.8380     0.7090    -6.6580 cd         1 HDT      -0.139000
      8 C11          1.2800    -1.4010    -2.5790 ca         1 HDT      -0.277000
      9 C10          0.1120    -0.6300    -2.7110 ca         1 HDT       0.278800
     10 C9          -0.4580    -0.3300    -4.0220 cc         1 HDT      -0.296900
     11 C8          -1.8110    -0.1900    -4.2610 cd         1 HDT       0.040600
     12 C12          1.7520    -1.6630    -1.2840 ca         1 HDT       0.152900
     13 C17         -0.5070     0.0390     2.0450 ca         1 HDT       0.379000
     14 C14         -0.0020    -0.4710    -0.4230 ca         1 HDT       0.391900
     15 N15         -0.5390    -0.1790    -1.6190 nb         1 HDT      -0.249000
     16 C18          0.7830     0.0840     2.6010 ca         1 HDT      -0.184500
     17 C19          0.9600     0.1380     3.9930 ca         1 HDT       0.024500
     18 C20         -0.1630     0.1570     4.8430 ca         1 HDT      -0.317500
     19 O26          1.3640    -0.3300     6.9920 o          1 HDT      -0.548000
     20 S23          0.0630     0.2240     6.6180 sy         1 HDT       1.132600
     21 O25         -1.1810    -0.1340     7.2950 o          1 HDT      -0.548000
     22 N24          0.1950     1.8340     6.8690 n8         1 HDT      -0.999100
     23 C21         -1.4590     0.1280     4.2910 ca         1 HDT       0.024500
     24 N16         -0.7250    -0.0000     0.6660 nu         1 HDT      -0.926900
     25 N13          1.1080    -1.1980    -0.1980 nb         1 HDT      -0.226000
     26 N7          -2.0340     0.1970    -5.5840 nd         1 HDT      -0.295600
     27 H22         -2.6240     0.0510     2.4790 ha         1 HDT       0.136000
     28 H5          -1.2340     1.0020    -8.1630 ha         1 HDT       0.148000
     29 H4           1.1910     1.2670    -8.6920 ha         1 HDT       0.129000
     30 H3           2.8870     0.8860    -6.8730 ha         1 HDT       0.134000
     31 H11          1.7930    -1.8070    -3.4460 ha         1 HDT       0.136000
     32 H8          -2.6360    -0.3440    -3.5680 h4         1 HDT       0.240000
     33 H12          2.6460    -2.2590    -1.1120 h4         1 HDT       0.027100
     34 H18          1.6590     0.0970     1.9610 ha         1 HDT       0.136000
     35 H19          1.9680     0.1730     4.4040 ha         1 HDT       0.136000
     36 H241        -0.4970     1.9720     7.6020 hn         1 HDT       0.469500
     37 H242        -0.2480     2.2180     6.0390 hn         1 HDT       0.469500
     38 H21         -2.3400     0.1450     4.9310 ha         1 HDT       0.136000
     39 H16         -1.6530     0.3230     0.3960 hn         1 HDT       0.515000
     40 H2           2.1610     0.1510    -4.5420 h4         1 HDT       0.149000
@<TRIPOS>BOND
     1     1    13 ar  
     2     1    23 ar  
     3     1    27 1   
     4     2     3 1   
     5     2     4 1   
     6     2    10 1   
     7     3     7 2   
     8     3    40 1   
     9     4     5 1   
    10     4    26 2   
    11     5     6 2   
    12     5    28 1   
    13     6     7 1   
    14     6    29 1   
    15     7    30 1   
    16     8     9 ar  
    17     8    12 ar  
    18     8    31 1   
    19     9    10 1   
    20     9    15 ar  
    21    10    11 2   
    22    11    26 1   
    23    11    32 1   
    24    12    25 ar  
    25    12    33 1   
    26    13    16 ar  
    27    13    24 1   
    28    14    15 ar  
    29    14    24 1   
    30    14    25 ar  
    31    16    17 ar  
    32    16    34 1   
    33    17    18 ar  
    34    17    35 1   
    35    18    20 1   
    36    18    23 ar  
    37    19    20 2   
    38    20    21 2   
    39    20    22 1   
    40    22    36 1   
    41    22    37 1   
    42    23    38 1   
    43    24    39 1   
@<TRIPOS>SUBSTRUCTURE
     1 HDT         1 TEMP              0 ****  ****    0 ROOT
