@<TRIPOS>MOLECULE
HDT
   40    43     1     0     0
SMALL
bcc


@<TRIPOS>ATOM
      1 C22         -1.6590     0.4760     2.7980 ca         1 HDT      -0.202500
      2 N1           0.1790     0.0770    -5.1710 na         1 HDT       0.052700
      3 C2           1.4650     0.3070    -5.5660 cc         1 HDT      -0.079300
      4 C6          -0.8680     0.0950    -6.0780 cc         1 HDT      -0.012300
      5 C5          -0.5920     0.2850    -7.4430 cc         1 HDT      -0.093000
      6 C4           0.6990     0.4730    -7.8420 cd         1 HDT      -0.115000
      7 C3           1.7380     0.4970    -6.8820 cd         1 HDT      -0.157000
      8 C11          1.5950    -0.7720    -2.5100 ca         1 HDT      -0.425600
      9 C10          0.2940    -0.2790    -2.6560 ca         1 HDT       0.607100
     10 C9          -0.3860    -0.1110    -3.9240 cc         1 HDT      -0.296900
     11 C8          -1.7440    -0.1820    -4.1650 cd         1 HDT       0.090600
     12 C12          2.0590    -0.9010    -1.2170 ca         1 HDT       0.481200
     13 C17         -0.5570     0.0920     2.0170 ca         1 HDT       0.240600
     14 C14          0.1050    -0.1650    -0.3880 ca         1 HDT       0.917900
     15 N15         -0.4400     0.0170    -1.5870 nb         1 HDT      -0.775000
     16 C18          0.6160    -0.3150     2.6650 ca         1 HDT      -0.202500
     17 C19          0.6730    -0.3310     4.0460 ca         1 HDT       0.006500
     18 C20         -0.4270     0.0510     4.8020 ca         1 HDT      -0.317500
     19 O26          0.5650    -1.0530     6.9830 o          1 HDT      -0.618800
     20 S23         -0.3270     0.0180     6.5580 sy         1 HDT       1.274200
     21 O25         -1.6860     0.0310     7.0850 o          1 HDT      -0.618800
     22 N24          0.4920     1.4220     6.8670 n8         1 HDT      -0.888700
     23 C21         -1.5990     0.4540     4.1750 ca         1 HDT       0.006500
     24 N16         -0.7290     0.1480     0.6500 nu         1 HDT      -0.733300
     25 N13          1.3370    -0.5970    -0.1460 nb         1 HDT      -0.752000
     26 N7          -2.0350    -0.0700    -5.4680 nd         1 HDT      -0.295600
     27 H22         -2.5750     0.7930     2.3140 ha         1 HDT       0.154000
     28 H5          -1.4160     0.2820    -8.1420 ha         1 HDT       0.166000
     29 H4           0.9310     0.6200    -8.8870 ha         1 HDT       0.147000
     30 H3           2.7600     0.6770    -7.1790 ha         1 HDT       0.152000
     31 H11          2.2080    -1.0890    -3.3380 ha         1 HDT       0.154000
     32 H8          -2.5090    -0.3410    -3.4200 h4         1 HDT       0.190000
     33 H12          3.0590    -1.2760    -1.0320 h4         1 HDT       0.027100
     34 H18          1.4780    -0.6200     2.0960 ha         1 HDT       0.154000
     35 H19          1.5890    -0.6510     4.5240 ha         1 HDT       0.154000
     36 H241         0.8650     1.4310     7.8130 hn         1 HDT       0.414300
     37 H242        -0.0790     2.2470     6.7130 hn         1 HDT       0.414300
     38 H21         -2.4680     0.7510     4.7460 ha         1 HDT       0.154000
     39 H16         -1.6320     0.4740     0.3400 hn         1 HDT       0.459800
     40 H2           2.2250     0.3550    -4.8040 h4         1 HDT       0.167000
@<TRIPOS>BOND
     1     1    13 ar  
     2     1    23 ar  
     3     1    27 1   
     4     2     3 1   
     5     2     4 1   
     6     2    10 1   
     7     3     7 2   
     8     3    40 1   
     9     4     5 1   
    10     4    26 2   
    11     5     6 2   
    12     5    28 1   
    13     6     7 1   
    14     6    29 1   
    15     7    30 1   
    16     8     9 ar  
    17     8    12 ar  
    18     8    31 1   
    19     9    10 1   
    20     9    15 ar  
    21    10    11 2   
    22    11    26 1   
    23    11    32 1   
    24    12    25 ar  
    25    12    33 1   
    26    13    16 ar  
    27    13    24 1   
    28    14    15 ar  
    29    14    24 1   
    30    14    25 ar  
    31    16    17 ar  
    32    16    34 1   
    33    17    18 ar  
    34    17    35 1   
    35    18    20 1   
    36    18    23 ar  
    37    19    20 2   
    38    20    21 2   
    39    20    22 1   
    40    22    36 1   
    41    22    37 1   
    42    23    38 1   
    43    24    39 1   
@<TRIPOS>SUBSTRUCTURE
     1 HDT         1 TEMP              0 ****  ****    0 ROOT
