@<TRIPOS>MOLECULE
HDU
   33    35     1     0     0
SMALL
No Charge or Current Charge


@<TRIPOS>ATOM
      1 O20          0.4920    -0.5880     5.2570 o          1 HDU      -0.523100
      2 C18         -0.2060     0.2890     4.7650 c          1 HDU       0.616100
      3 C19         -1.0890     1.1880     5.6210 c3         1 HDU      -0.185100
      4 N17         -0.2780     0.5490     3.4100 ns         1 HDU      -0.326900
      5 C15          0.3770    -0.0600     2.3210 ca         1 HDU       0.267900
      6 N16         -0.2530     0.0930     1.1420 nb         1 HDU      -0.244000
      7 N14          1.5410    -0.6990     2.5510 nb         1 HDU      -0.176000
      8 C13          2.1290    -1.2560     1.4750 ca         1 HDU       0.140900
      9 C12          1.5540    -1.1600     0.1970 ca         1 HDU      -0.272000
     10 C11          0.3400    -0.4600     0.0640 ca         1 HDU       0.265800
     11 C7          -0.3080    -0.3270    -1.2390 cc         1 HDU      -0.288900
     12 N6           0.2050     0.0080    -2.4590 na         1 HDU       0.151100
     13 C5          -0.7910     0.1280    -3.3820 cc         1 HDU      -0.060000
     14 N8          -1.9510    -0.1600    -2.8140 nd         1 HDU      -0.305600
     15 C9          -1.6680    -0.4190    -1.4730 cd         1 HDU       0.142400
     16 C10         -2.7710    -0.7650    -0.5050 c3         1 HDU      -0.026900
     17 C4          -0.4940     0.5140    -4.7170 cc         1 HDU      -0.077000
     18 C3           0.8080     0.8250    -5.0310 cd         1 HDU      -0.098000
     19 C2           1.8070     0.7940    -3.9860 cd         1 HDU      -0.144000
     20 C1           1.5240     0.4280    -2.6690 cc         1 HDU      -0.109000
     21 H191        -1.0170     0.9570     6.6900 hc         1 HDU       0.066367
     22 H192        -0.8390     2.2340     5.4140 hc         1 HDU       0.066367
     23 H193        -2.1220     1.1200     5.2600 hc         1 HDU       0.066367
     24 H17         -0.9310     1.2750     3.1480 hn         1 HDU       0.167000
     25 H13          3.0650    -1.7850     1.6410 h4         1 HDU       0.028100
     26 H12          2.0300    -1.6290    -0.6600 ha         1 HDU       0.136000
     27 H101        -2.4760    -1.5940     0.1480 hc         1 HDU       0.056033
     28 H102        -3.0190     0.0950     0.1280 hc         1 HDU       0.056033
     29 H103        -3.6840    -1.0670    -1.0320 hc         1 HDU       0.056033
     30 H4          -1.2890     0.5720    -5.4540 ha         1 HDU       0.146000
     31 H3           1.0730     1.1250    -6.0400 ha         1 HDU       0.127000
     32 H2           2.8230     1.0860    -4.2330 ha         1 HDU       0.133000
     33 H1           2.2230     0.4190    -1.8440 h4         1 HDU       0.150000
@<TRIPOS>BOND
     1     1     2 2   
     2     2     3 1   
     3     2     4 1   
     4     3    21 1   
     5     3    22 1   
     6     3    23 1   
     7     4     5 1   
     8     4    24 1   
     9     5     6 ar  
    10     5     7 ar  
    11     6    10 ar  
    12     7     8 ar  
    13     8     9 ar  
    14     8    25 1   
    15     9    10 ar  
    16     9    26 1   
    17    10    11 1   
    18    11    12 1   
    19    11    15 2   
    20    12    13 1   
    21    12    20 1   
    22    13    14 2   
    23    13    17 1   
    24    14    15 1   
    25    15    16 1   
    26    16    27 1   
    27    16    28 1   
    28    16    29 1   
    29    17    18 2   
    30    17    30 1   
    31    18    19 1   
    32    18    31 1   
    33    19    20 2   
    34    19    32 1   
    35    20    33 1   
@<TRIPOS>SUBSTRUCTURE
     1 HDU         1 TEMP              0 ****  ****    0 ROOT
