@<TRIPOS>MOLECULE
HDU
   33    35     1     0     0
SMALL
bcc


@<TRIPOS>ATOM
      1 O20          0.9360    -0.1060     5.2360 o          1 HDU      -0.523100
      2 C18         -0.0790     0.3610     4.7710 c          1 HDU       0.683100
      3 C19         -1.1560     1.0020     5.6090 c3         1 HDU      -0.185100
      4 N17         -0.3730     0.3880     3.4280 ns         1 HDU      -0.560400
      5 C15          0.3560    -0.0700     2.3480 ca         1 HDU       0.793900
      6 N16         -0.2560     0.1160     1.1850 nb         1 HDU      -0.770000
      7 N14          1.5450    -0.6200     2.5340 nb         1 HDU      -0.702000
      8 C13          2.1500    -1.0480     1.4320 ca         1 HDU       0.469200
      9 C12          1.6060    -0.9310     0.1700 ca         1 HDU      -0.420600
     10 C11          0.3570    -0.3090     0.0840 ca         1 HDU       0.594100
     11 C7          -0.3580    -0.1320    -1.1670 cc         1 HDU      -0.288900
     12 N6           0.2420     0.1020    -2.3920 na         1 HDU       0.049700
     13 C5          -0.7710     0.1100    -3.3310 cc         1 HDU      -0.009300
     14 N8          -1.9470    -0.1080    -2.7650 nd         1 HDU      -0.305600
     15 C9          -1.7130    -0.2470    -1.4460 cd         1 HDU       0.142400
     16 C10         -2.8250    -0.5680    -0.5090 c3         1 HDU      -0.026900
     17 C4          -0.4550     0.3490    -4.6810 cc         1 HDU      -0.095000
     18 C3           0.8420     0.5880    -5.0280 cd         1 HDU      -0.116000
     19 C2           1.8460     0.6180    -4.0320 cd         1 HDU      -0.162000
     20 C1           1.5320     0.3850    -2.7320 cc         1 HDU      -0.076300
     21 H191        -0.9890     0.7870     6.6610 hc         1 HDU       0.066367
     22 H192        -1.1390     2.0840     5.4690 hc         1 HDU       0.066367
     23 H193        -2.1490     0.6510     5.3280 hc         1 HDU       0.066367
     24 H17         -1.2560     0.8000     3.1650 hn         1 HDU       0.333500
     25 H13          3.1170    -1.5200     1.5670 h4         1 HDU       0.028100
     26 H12          2.1170    -1.3450    -0.6860 ha         1 HDU       0.154000
     27 H101        -2.9750    -1.6480    -0.4480 hc         1 HDU       0.056033
     28 H102        -2.6310    -0.2020     0.4940 hc         1 HDU       0.056033
     29 H103        -3.7550    -0.1320    -0.8710 hc         1 HDU       0.056033
     30 H4          -1.2540     0.3400    -5.4080 ha         1 HDU       0.164000
     31 H3           1.1060     0.7700    -6.0600 ha         1 HDU       0.145000
     32 H2           2.8730     0.8360    -4.2880 ha         1 HDU       0.151000
     33 H1           2.2610     0.4300    -1.9400 h4         1 HDU       0.168000
@<TRIPOS>BOND
     1     1     2 2   
     2     2     3 1   
     3     2     4 1   
     4     3    21 1   
     5     3    22 1   
     6     3    23 1   
     7     4     5 1   
     8     4    24 1   
     9     5     6 ar  
    10     5     7 ar  
    11     6    10 ar  
    12     7     8 ar  
    13     8     9 ar  
    14     8    25 1   
    15     9    10 ar  
    16     9    26 1   
    17    10    11 1   
    18    11    12 1   
    19    11    15 2   
    20    12    13 1   
    21    12    20 1   
    22    13    14 2   
    23    13    17 1   
    24    14    15 1   
    25    15    16 1   
    26    16    27 1   
    27    16    28 1   
    28    16    29 1   
    29    17    18 2   
    30    17    30 1   
    31    18    19 1   
    32    18    31 1   
    33    19    20 2   
    34    19    32 1   
    35    20    33 1   
@<TRIPOS>SUBSTRUCTURE
     1 HDU         1 TEMP              0 ****  ****    0 ROOT
