@<TRIPOS>MOLECULE
HDW
  176   176     1     0     0
SMALL
abcg2


@<TRIPOS>ATOM
      1 N12         17.9440   -14.7240     1.1130 na         1 HDW       0.106600
      2 C15         13.4380    -0.9830     0.7980 c3         1 HDW      -0.075400
      3 C17         12.5260     1.3920     0.7170 c3         1 HDW      -0.075400
      4 C20         11.9320     5.2280     0.8990 c3         1 HDW      -0.158400
      5 C21         10.8730     6.1760     0.4010 c          1 HDW       0.629100
      6 C28          8.0840    10.1000     0.4730 c3         1 HDW      -0.041400
      7 C01         14.3710    -3.3520     0.8490 c3         1 HDW      -0.075400
      8 C02         15.5520    -4.2450     1.2100 c3         1 HDW      -0.073400
      9 C03         15.3210    -5.7150     0.8850 c3         1 HDW      -0.075400
     10 C04         16.5100    -6.6010     1.2360 c3         1 HDW      -0.073400
     11 C05         16.2830    -8.0720     0.9140 c3         1 HDW      -0.074400
     12 C06         17.4790    -8.9500     1.2600 c3         1 HDW      -0.074400
     13 C07         17.2510   -10.4200     0.9400 c3         1 HDW      -0.073400
     14 C08         18.4680   -11.2800     1.2900 c3         1 HDW      -0.095700
     15 C09         18.2620   -12.7150     0.9720 cc         1 HDW       0.502300
     16 C14         14.6080    -1.8830     1.1760 c3         1 HDW      -0.073400
     17 C16         13.6800     0.4850     1.1260 c3         1 HDW      -0.073400
     18 C18         12.7760     2.8590     1.0410 c3         1 HDW      -0.075400
     19 C19         11.6450     3.7690     0.5770 c3         1 HDW      -0.068400
     20 C27          8.9570     8.9290     0.9050 c3         1 HDW      -0.315400
     21 C29          6.9130    10.2610     1.4330 c3         1 HDW      -0.155400
     22 C30          6.0520    11.4590     1.0830 c          1 HDW       0.597100
     23 C33          3.7880    12.3970     1.2260 c3         1 HDW       0.101000
     24 C34          3.0570    12.2370    -0.0910 c3         1 HDW       0.138600
     25 C36          1.6970    10.7370    -1.2770 c3         1 HDW       0.164600
     26 C37          0.8650     9.4910    -1.1190 c3         1 HDW       0.160600
     27 C39         -0.9860     8.6260     0.0010 c3         1 HDW       0.056600
     28 C40         -2.1120     8.9950     0.9520 c          1 HDW       0.608100
     29 C43         -3.9110     8.0390     2.2820 c3         1 HDW      -0.050300
     30 C44         -4.9720     6.9540     2.1190 c3         1 HDW      -0.061400
     31 C45         -5.8080     7.1190     0.8570 c3         1 HDW      -0.162400
     32 C46         -6.9200     6.0960     0.7560 c          1 HDW       0.602100
     33 C49         -8.3430     4.8750    -0.8190 c3         1 HDW      -0.042300
     34 C50         -8.1100     4.1610    -2.1500 c3         1 HDW      -0.063400
     35 C51         -6.9720     3.1470    -2.0810 c3         1 HDW      -0.156400
     36 C52         -6.6490     2.5460    -3.4310 c          1 HDW       0.600100
     37 C55         -6.2090     0.4400    -4.6300 c3         1 HDW       0.103000
     38 C56         -5.3990    -0.7800    -4.2500 c3         1 HDW       0.142600
     39 C58         -5.4610    -2.6350    -2.8060 c3         1 HDW       0.166600
     40 C59         -6.4030    -3.5250    -2.0380 c3         1 HDW       0.159600
     41 C61         -8.1140    -5.0900    -2.3110 c3         1 HDW       0.073600
     42 C62         -8.7980    -5.9400    -3.3700 c          1 HDW       0.609100
     43 C65        -10.7900    -7.2560    -3.8680 c3         1 HDW      -0.036300
     44 C66        -11.8400    -8.0130    -3.0580 c3         1 HDW      -0.074400
     45 C67        -11.2620    -8.9990    -2.0490 c3         1 HDW      -0.075400
     46 C68        -12.3540    -9.7640    -1.3150 c3         1 HDW      -0.097400
     47 C69        -11.7860   -10.7550    -0.3120 c3         1 HDW       0.099000
     48 C71        -12.6620   -12.2660     1.4100 c          1 HDW       0.609100
     49 C73        -13.9250   -12.8790     1.9810 c3         1 HDW      -0.048400
     50 C75        -15.1390   -14.9580     3.3430 c3         1 HDW       0.027600
     51 C76        -15.8420   -15.6500     2.1900 c3         1 HDW       0.163600
     52 C78        -11.4700    -6.4110    -4.9780 c          1 HDW       0.715000
     53 C81         -9.6460     5.7180    -0.8640 c          1 HDW       0.716000
     54 C84         -3.2000     7.9090     3.6580 c          1 HDW       0.715000
     55 N10         18.1740   -13.2090    -0.2780 nc         1 HDW      -0.384000
     56 N11         17.9740   -14.4810    -0.1600 nd         1 HDW      -0.174800
     57 N13         18.1160   -13.6710     1.8690 nd         1 HDW      -0.523800
     58 N23         11.2490     7.5020     0.4550 ns         1 HDW      -0.599300
     59 N32          4.7670    11.3610     1.4600 ns         1 HDW      -0.490900
     60 N42         -2.9800     7.9960     1.1760 ns         1 HDW      -0.449900
     61 N48         -7.1780     5.6590    -0.4860 ns         1 HDW      -0.471900
     62 N54         -6.5570     1.2080    -3.4560 ns         1 HDW      -0.511900
     63 N64         -9.9670    -6.4630    -2.9840 ns         1 HDW      -0.470900
     64 N70        -12.8570   -11.4720     0.3520 ns         1 HDW      -0.498900
     65 O22          9.7810     5.8440     0.0010 o          1 HDW      -0.538100
     66 O25          9.8980     8.4070    -1.5140 o          1 HDW      -0.523500
     67 O26         11.2230     9.9290    -0.0300 o          1 HDW      -0.523500
     68 O31          6.5120    12.4500     0.5340 o          1 HDW      -0.627100
     69 O35          2.3230    11.0400    -0.0560 os         1 HDW      -0.442000
     70 O38         -0.2140     9.7560    -0.2560 os         1 HDW      -0.410000
     71 O41         -2.2140    10.1080     1.4400 o          1 HDW      -0.598100
     72 O47         -7.5250     5.6950     1.7430 o          1 HDW      -0.629100
     73 O53         -6.4610     3.2450    -4.4200 o          1 HDW      -0.637100
     74 O57         -6.1890    -1.6050    -3.4280 os         1 HDW      -0.441000
     75 O60         -7.2170    -4.2290    -2.9430 os         1 HDW      -0.405000
     76 O63         -8.2680    -6.1740    -4.4450 o          1 HDW      -0.591100
     77 O72        -11.5640   -12.4760     1.9040 o          1 HDW      -0.591100
     78 O77        -17.1180   -16.0540     2.6330 oh         1 HDW      -0.666000
     79 O79        -12.0090    -7.0770    -5.8850 o          1 HDW      -0.718000
     80 O80        -11.4430    -5.1740    -4.8660 o          1 HDW      -0.718000
     81 O85         -3.9350     8.0970     4.6480 o          1 HDW      -0.733000
     82 O86         -1.9920     7.6230     3.6590 o          1 HDW      -0.733000
     83 S24         10.3600     8.7700    -0.1870 s6         1 HDW       1.200800
     84 S74        -13.4820   -14.3800     2.8940 ss         1 HDW      -0.350000
     85 H1          17.8060   -15.6550     1.4830 hn         1 HDW       0.404000
     86 H2          13.2320    -1.0860    -0.2730 hc         1 HDW       0.040700
     87 H3          12.5330    -1.3270     1.3130 hc         1 HDW       0.040700
     88 H4          12.3460     1.2860    -0.3590 hc         1 HDW       0.044200
     89 H5          11.6070     1.0600     1.2120 hc         1 HDW       0.044200
     90 H6          12.8970     5.5290     0.4830 hc         1 HDW       0.060700
     91 H7          12.0200     5.3690     1.9820 hc         1 HDW       0.060700
     92 H8           8.6710    11.0170     0.4580 hc         1 HDW       0.073200
     93 H9           7.7100     9.9310    -0.5380 hc         1 HDW       0.073200
     94 H10         14.1520    -3.4550    -0.2200 hc         1 HDW       0.039700
     95 H11         13.4760    -3.7030     1.3750 hc         1 HDW       0.039700
     96 H12         16.4450    -3.8930     0.6810 hc         1 HDW       0.035200
     97 H13         15.7740    -4.1400     2.2770 hc         1 HDW       0.035200
     98 H14         14.4330    -6.0700     1.4190 hc         1 HDW       0.039700
     99 H15         15.0930    -5.8190    -0.1820 hc         1 HDW       0.039700
    100 H16         17.3970    -6.2450     0.7000 hc         1 HDW       0.035700
    101 H17         16.7400    -6.4940     2.3020 hc         1 HDW       0.035700
    102 H18         15.4000    -8.4310     1.4550 hc         1 HDW       0.041200
    103 H19         16.0490    -8.1790    -0.1510 hc         1 HDW       0.041200
    104 H20         18.3610    -8.5930     0.7160 hc         1 HDW       0.037200
    105 H21         17.7150    -8.8420     2.3240 hc         1 HDW       0.037200
    106 H22         16.3780   -10.7870     1.4890 hc         1 HDW       0.050700
    107 H23         17.0180   -10.5340    -0.1220 hc         1 HDW       0.050700
    108 H24         19.3400   -10.9150     0.7410 hc         1 HDW       0.062700
    109 H25         18.6980   -11.1840     2.3520 hc         1 HDW       0.062700
    110 H26         15.5100    -1.5370     0.6580 hc         1 HDW       0.034700
    111 H27         14.8160    -1.7790     2.2470 hc         1 HDW       0.034700
    112 H28         13.8650     0.5920     2.2000 hc         1 HDW       0.034700
    113 H29         14.5950     0.8210     0.6270 hc         1 HDW       0.034700
    114 H30         12.9220     2.9740     2.1200 hc         1 HDW       0.033700
    115 H31         13.7130     3.1790     0.5720 hc         1 HDW       0.033700
    116 H32         10.7090     3.4600     1.0460 hc         1 HDW       0.060200
    117 H33         11.5070     3.6510    -0.5020 hc         1 HDW       0.060200
    118 H34          9.3640     9.0730     1.9070 h1         1 HDW       0.102700
    119 H35          8.4170     7.9820     0.8770 h1         1 HDW       0.102700
    120 H36          6.3100     9.3500     1.4560 hc         1 HDW       0.061200
    121 H37          7.2860    10.4080     2.4520 hc         1 HDW       0.061200
    122 H38          4.2800    13.3690     1.2410 h1         1 HDW       0.066700
    123 H39          3.0740    12.3870     2.0510 h1         1 HDW       0.066700
    124 H40          2.3950    13.1020    -0.2420 h1         1 HDW       0.027200
    125 H41          3.7790    12.2350    -0.9190 h1         1 HDW       0.027200
    126 H42          2.4380    10.5610    -2.0680 h1         1 HDW       0.022200
    127 H43          1.0630    11.5690    -1.6150 h1         1 HDW       0.022200
    128 H44          0.5100     9.1810    -2.1120 h1         1 HDW       0.021700
    129 H45          1.4870     8.6710    -0.7320 h1         1 HDW       0.021700
    130 H46         -0.3900     7.8260     0.4670 h1         1 HDW       0.029200
    131 H47         -1.4110     8.1990    -0.9200 h1         1 HDW       0.029200
    132 H48         -4.4170     9.0090     2.2590 h1         1 HDW       0.065700
    133 H49         -4.4930     5.9680     2.1230 hc         1 HDW       0.058200
    134 H50         -5.6180     6.9890     2.9940 hc         1 HDW       0.058200
    135 H51         -6.2750     8.1110     0.8580 hc         1 HDW       0.046200
    136 H52         -5.1780     7.0840    -0.0340 hc         1 HDW       0.046200
    137 H53         -8.4700     4.1160    -0.0410 h1         1 HDW       0.060700
    138 H54         -9.0340     3.6560    -2.4320 hc         1 HDW       0.057200
    139 H55         -7.9040     4.9000    -2.9300 hc         1 HDW       0.057200
    140 H56         -6.0600     3.6330    -1.7220 hc         1 HDW       0.053700
    141 H57         -7.2140     2.3710    -1.3520 hc         1 HDW       0.053700
    142 H58         -5.6160     1.0610    -5.2990 h1         1 HDW       0.058200
    143 H59         -7.1060     0.1350    -5.1800 h1         1 HDW       0.058200
    144 H60         -5.0920    -1.3090    -5.1620 h1         1 HDW       0.021200
    145 H61         -4.4830    -0.4690    -3.7300 h1         1 HDW       0.021200
    146 H62         -4.7210    -2.2220    -2.1070 h1         1 HDW       0.022200
    147 H63         -4.9060    -3.2310    -3.5450 h1         1 HDW       0.022200
    148 H64         -5.8060    -4.2160    -1.4280 h1         1 HDW       0.021700
    149 H65         -7.0060    -2.9230    -1.3440 h1         1 HDW       0.021700
    150 H66         -8.8540    -4.5400    -1.7120 h1         1 HDW       0.020700
    151 H67         -7.5980    -5.7710    -1.6170 h1         1 HDW       0.020700
    152 H68        -10.1460    -7.9930    -4.3570 h1         1 HDW       0.055700
    153 H69        -12.4900    -7.2960    -2.5410 hc         1 HDW       0.047200
    154 H70        -12.4760    -8.5510    -3.7630 hc         1 HDW       0.047200
    155 H71        -10.6040    -9.7030    -2.5700 hc         1 HDW       0.037700
    156 H72        -10.6340    -8.4760    -1.3220 hc         1 HDW       0.037700
    157 H73        -13.0110    -9.0600    -0.7970 hc         1 HDW       0.039200
    158 H74        -12.9750   -10.2970    -2.0430 hc         1 HDW       0.039200
    159 H75        -11.1190   -11.4580    -0.8200 h1         1 HDW       0.052700
    160 H76        -11.1850   -10.2260     0.4320 h1         1 HDW       0.052700
    161 H77        -14.3950   -12.1620     2.6600 h1         1 HDW       0.071200
    162 H78        -14.6430   -13.1000     1.1910 h1         1 HDW       0.071200
    163 H79        -15.7260   -14.1140     3.7140 h1         1 HDW       0.078200
    164 H80        -15.0010   -15.6520     4.1740 h1         1 HDW       0.078200
    165 H81        -15.9140   -14.9660     1.3350 h1         1 HDW       0.025700
    166 H82        -15.2330   -16.5030     1.8650 h1         1 HDW       0.025700
    167 H83         12.1560     7.7590     0.8260 hn         1 HDW       0.341500
    168 H84          4.4410    10.4890     1.8430 hn         1 HDW       0.329500
    169 H85         -2.7140     7.0780     0.8510 hn         1 HDW       0.285500
    170 H86         -6.7220     6.1390    -1.2460 hn         1 HDW       0.288500
    171 H87         -6.7990     0.6920    -2.6250 hn         1 HDW       0.324500
    172 H88        -10.4010    -6.0910    -2.1530 hn         1 HDW       0.291500
    173 H89        -13.7860   -11.3890    -0.0280 hn         1 HDW       0.311500
    174 H90        -17.5760   -16.4620     1.8920 ho         1 HDW       0.441000
    175 O82         -9.5440     6.9480    -0.7300 o          1 HDW      -0.729500
    176 O83        -10.6900     5.0590    -1.0400 o          1 HDW      -0.729500
@<TRIPOS>BOND
     1     1    56 1   
     2     1    57 1   
     3     1    85 1   
     4     2    16 1   
     5     2    17 1   
     6     2    86 1   
     7     2    87 1   
     8     3    17 1   
     9     3    18 1   
    10     3    88 1   
    11     3    89 1   
    12     4     5 1   
    13     4    19 1   
    14     4    90 1   
    15     4    91 1   
    16     5    58 1   
    17     5    65 2   
    18     6    20 1   
    19     6    21 1   
    20     6    92 1   
    21     6    93 1   
    22     7     8 1   
    23     7    16 1   
    24     7    94 1   
    25     7    95 1   
    26     8     9 1   
    27     8    96 1   
    28     8    97 1   
    29     9    10 1   
    30     9    98 1   
    31     9    99 1   
    32    10    11 1   
    33    10   100 1   
    34    10   101 1   
    35    11    12 1   
    36    11   102 1   
    37    11   103 1   
    38    12    13 1   
    39    12   104 1   
    40    12   105 1   
    41    13    14 1   
    42    13   106 1   
    43    13   107 1   
    44    14    15 1   
    45    14   108 1   
    46    14   109 1   
    47    15    55 1   
    48    15    57 2   
    49    16   110 1   
    50    16   111 1   
    51    17   112 1   
    52    17   113 1   
    53    18    19 1   
    54    18   114 1   
    55    18   115 1   
    56    19   116 1   
    57    19   117 1   
    58    20    83 1   
    59    20   118 1   
    60    20   119 1   
    61    21    22 1   
    62    21   120 1   
    63    21   121 1   
    64    22    59 1   
    65    22    68 2   
    66    23    24 1   
    67    23    59 1   
    68    23   122 1   
    69    23   123 1   
    70    24    69 1   
    71    24   124 1   
    72    24   125 1   
    73    25    26 1   
    74    25    69 1   
    75    25   126 1   
    76    25   127 1   
    77    26    70 1   
    78    26   128 1   
    79    26   129 1   
    80    27    28 1   
    81    27    70 1   
    82    27   130 1   
    83    27   131 1   
    84    28    60 1   
    85    28    71 2   
    86    29    30 1   
    87    29    54 1   
    88    29    60 1   
    89    29   132 1   
    90    30    31 1   
    91    30   133 1   
    92    30   134 1   
    93    31    32 1   
    94    31   135 1   
    95    31   136 1   
    96    32    61 1   
    97    32    72 2   
    98    33    34 1   
    99    33    53 1   
   100    33    61 1   
   101    33   137 1   
   102    34    35 1   
   103    34   138 1   
   104    34   139 1   
   105    35    36 1   
   106    35   140 1   
   107    35   141 1   
   108    36    62 1   
   109    36    73 2   
   110    37    38 1   
   111    37    62 1   
   112    37   142 1   
   113    37   143 1   
   114    38    74 1   
   115    38   144 1   
   116    38   145 1   
   117    39    40 1   
   118    39    74 1   
   119    39   146 1   
   120    39   147 1   
   121    40    75 1   
   122    40   148 1   
   123    40   149 1   
   124    41    42 1   
   125    41    75 1   
   126    41   150 1   
   127    41   151 1   
   128    42    63 1   
   129    42    76 2   
   130    43    44 1   
   131    43    52 1   
   132    43    63 1   
   133    43   152 1   
   134    44    45 1   
   135    44   153 1   
   136    44   154 1   
   137    45    46 1   
   138    45   155 1   
   139    45   156 1   
   140    46    47 1   
   141    46   157 1   
   142    46   158 1   
   143    47    64 1   
   144    47   159 1   
   145    47   160 1   
   146    48    49 1   
   147    48    64 1   
   148    48    77 2   
   149    49    84 1   
   150    49   161 1   
   151    49   162 1   
   152    50    51 1   
   153    50    84 1   
   154    50   163 1   
   155    50   164 1   
   156    51    78 1   
   157    51   165 1   
   158    51   166 1   
   159    52    79 1   
   160    52    80 1   
   161    53   175 1   
   162    53   176 1   
   163    54    81 1   
   164    54    82 1   
   165    55    56 2   
   166    58    83 1   
   167    58   167 1   
   168    59   168 1   
   169    60   169 1   
   170    61   170 1   
   171    62   171 1   
   172    63   172 1   
   173    64   173 1   
   174    66    83 2   
   175    67    83 2   
   176    78   174 1   
@<TRIPOS>SUBSTRUCTURE
     1 HDW         1 TEMP              0 ****  ****    0 ROOT
