@<TRIPOS>MOLECULE
HDW
  176   176     1     0     0
SMALL
No Charge or Current Charge


@<TRIPOS>ATOM
      1 N12         18.1350   -14.0970    -0.2530 na         1 HDW       0.106600
      2 C15         12.9810    -0.5850     1.2540 c3         1 HDW      -0.075400
      3 C17         11.8240     1.6990     1.5150 c3         1 HDW      -0.075400
      4 C20         10.6310     5.3460     2.4950 c3         1 HDW      -0.158400
      5 C21          9.4240     6.1860     2.0660 c          1 HDW       0.629100
      6 C28          7.0450    10.3960     1.3430 c3         1 HDW      -0.041400
      7 C01         14.1140    -2.8840     1.0080 c3         1 HDW      -0.075400
      8 C02         15.2760    -3.8030     1.4440 c3         1 HDW      -0.073400
      9 C03         15.2260    -5.1950     0.7770 c3         1 HDW      -0.075400
     10 C04         16.3830    -6.1180     1.2180 c3         1 HDW      -0.073400
     11 C05         16.3250    -7.5150     0.5610 c3         1 HDW      -0.074400
     12 C06         17.4800    -8.4390     1.0040 c3         1 HDW      -0.074400
     13 C07         17.4170    -9.8380     0.3540 c3         1 HDW      -0.073400
     14 C08         18.5720   -10.7650     0.7990 c3         1 HDW      -0.095700
     15 C09         18.5130   -12.1320     0.1700 cc         1 HDW       0.502300
     16 C14         14.1500    -1.4970     1.6860 c3         1 HDW      -0.073400
     17 C16         13.0020     0.7970     1.9420 c3         1 HDW      -0.073400
     18 C18         11.8310     3.0780     2.2110 c3         1 HDW      -0.075400
     19 C19         10.6420     3.9690     1.7890 c3         1 HDW      -0.068400
     20 C27          8.0750     9.3380     1.8130 c3         1 HDW      -0.315400
     21 C29          6.5590    11.2990     2.4990 c3         1 HDW      -0.155400
     22 C30          5.5020    12.2980     2.0180 c          1 HDW       0.597100
     23 C33          3.0260    12.7710     1.9830 c3         1 HDW       0.101000
     24 C34          2.6450    12.5090     0.5070 c3         1 HDW       0.138600
     25 C36          2.0910    10.6960    -1.0020 c3         1 HDW       0.164600
     26 C37          1.8930     9.1620    -1.0350 c3         1 HDW       0.160600
     27 C39          0.3590     7.4130    -0.3370 c3         1 HDW       0.056600
     28 C40         -1.0290     7.0930     0.2810 c          1 HDW       0.608100
     29 C43         -2.5290     5.1460     0.9690 c3         1 HDW      -0.050300
     30 C44         -3.4770     4.6720    -0.1620 c3         1 HDW      -0.061400
     31 C45         -3.9920     5.8040    -1.0860 c3         1 HDW      -0.162400
     32 C46         -4.9600     5.2600    -2.1430 c          1 HDW       0.602100
     33 C49         -5.1530     4.6700    -4.6130 c3         1 HDW      -0.042300
     34 C50         -4.8020     3.1820    -4.8800 c3         1 HDW      -0.063400
     35 C51         -5.2260     2.2080    -3.7520 c3         1 HDW      -0.156400
     36 C52         -4.9160     0.7540    -4.1220 c          1 HDW       0.600100
     37 C55         -5.9580    -1.4430    -4.7830 c3         1 HDW       0.103000
     38 C56         -5.8130    -2.3440    -3.5350 c3         1 HDW       0.142600
     39 C58         -6.9770    -2.9510    -1.4990 c3         1 HDW       0.166600
     40 C59         -8.3270    -2.7580    -0.7680 c3         1 HDW       0.159600
     41 C61        -10.6690    -3.3970    -0.8860 c3         1 HDW       0.073600
     42 C62        -11.7300    -4.2410    -1.6440 c          1 HDW       0.609100
     43 C65        -14.1910    -4.9150    -1.5910 c3         1 HDW      -0.036300
     44 C66        -14.4170    -6.2440    -0.8230 c3         1 HDW      -0.074400
     45 C67        -13.2720    -7.2730    -0.9660 c3         1 HDW      -0.075400
     46 C68        -13.5700    -8.6100    -0.2530 c3         1 HDW      -0.097400
     47 C69        -12.4230    -9.6290    -0.3880 c3         1 HDW       0.099000
     48 C71        -11.8370   -11.9140     0.4760 c          1 HDW       0.609100
     49 C73        -12.4100   -13.1250     1.2420 c3         1 HDW      -0.048400
     50 C75        -12.2270   -15.6430     2.5900 c3         1 HDW       0.027600
     51 C76        -13.1790   -16.4290     1.6650 c3         1 HDW       0.163600
     52 C78        -15.4570    -4.0030    -1.5300 c          1 HDW       0.715000
     53 C81         -4.8540     5.5560    -5.8630 c          1 HDW       0.716000
     54 C84         -2.1950     3.9830     1.9540 c          1 HDW       0.715000
     55 N10         19.1460   -12.3830    -1.0100 nc         1 HDW      -0.384000
     56 N11         18.9110   -13.6340    -1.2870 nd         1 HDW      -0.174800
     57 N13         17.8670   -13.1450     0.6990 nd         1 HDW      -0.523800
     58 N23          9.7190     7.2360     1.2570 ns         1 HDW      -0.599300
     59 N32          4.2140    12.0180     2.4120 ns         1 HDW      -0.490900
     60 N42         -1.2780     5.7410     0.4330 ns         1 HDW      -0.449900
     61 N48         -4.4460     5.2000    -3.4210 ns         1 HDW      -0.471900
     62 N54         -6.0090    -0.0100    -4.4600 ns         1 HDW      -0.511900
     63 N64        -12.9980    -4.1800    -1.0970 ns         1 HDW      -0.470900
     64 N70        -12.7310   -10.8810     0.3030 ns         1 HDW      -0.498900
     65 O22          8.2940     5.9470     2.4600 o          1 HDW      -0.538100
     66 O25          7.5180     7.4740    -0.0010 o          1 HDW      -0.523500
     67 O26          9.4430     9.0700    -0.4500 o          1 HDW      -0.523500
     68 O31          5.7830    13.2860     1.3560 o          1 HDW      -0.627100
     69 O35          2.4070    11.0980     0.3450 os         1 HDW      -0.442000
     70 O38          0.6350     8.8320    -0.4120 os         1 HDW      -0.410000
     71 O41         -1.8420     7.9480     0.6150 o          1 HDW      -0.598100
     72 O47         -6.1080     4.9310    -1.8750 o          1 HDW      -0.629100
     73 O53         -3.7830     0.2950    -4.0970 o          1 HDW      -0.637100
     74 O57         -6.9940    -2.1950    -2.7260 os         1 HDW      -0.441000
     75 O60         -9.3480    -3.4940    -1.4690 os         1 HDW      -0.405000
     76 O63        -11.4830    -4.9110    -2.6420 o          1 HDW      -0.591100
     77 O72        -10.6910   -11.8550     0.0480 o          1 HDW      -0.591100
     78 O77        -13.9580   -17.3530     2.4350 oh         1 HDW      -0.666000
     79 O79        -16.1000    -3.8390    -2.5570 o          1 HDW      -0.718000
     80 O80        -15.7070    -3.4210    -0.4820 o          1 HDW      -0.718000
     81 O85         -2.6310     4.0500     3.0940 o          1 HDW      -0.733000
     82 O86         -1.4450     3.0930     1.5750 o          1 HDW      -0.733000
     83 S24          8.6540     8.2630     0.4850 s6         1 HDW       1.200800
     84 S74        -11.1660   -14.4590     1.6350 ss         1 HDW      -0.350000
     85 H1          17.7980   -15.0590    -0.2080 hn         1 HDW       0.404000
     86 H2          13.0140    -0.4470     0.1660 hc         1 HDW       0.040700
     87 H3          12.0310    -1.0860     1.4840 hc         1 HDW       0.040700
     88 H4          11.8580     1.8450     0.4280 hc         1 HDW       0.044200
     89 H5          10.8800     1.1880     1.7400 hc         1 HDW       0.044200
     90 H6          11.5640     5.8690     2.2510 hc         1 HDW       0.060700
     91 H7          10.5730     5.1800     3.5780 hc         1 HDW       0.060700
     92 H8           7.4900    11.0230     0.5580 hc         1 HDW       0.073200
     93 H9           6.1780     9.8920     0.8930 hc         1 HDW       0.073200
     94 H10         14.1470    -2.7540    -0.0810 hc         1 HDW       0.039700
     95 H11         13.1600    -3.3740     1.2430 hc         1 HDW       0.039700
     96 H12         16.2300    -3.3190     1.2000 hc         1 HDW       0.035200
     97 H13         15.2480    -3.9250     2.5340 hc         1 HDW       0.035200
     98 H14         14.2700    -5.6760     1.0180 hc         1 HDW       0.039700
     99 H15         15.2580    -5.0730    -0.3130 hc         1 HDW       0.039700
    100 H16         17.3400    -5.6420     0.9690 hc         1 HDW       0.035700
    101 H17         16.3560    -6.2330     2.3090 hc         1 HDW       0.035700
    102 H18         15.3680    -7.9900     0.8090 hc         1 HDW       0.041200
    103 H19         16.3520    -7.4010    -0.5300 hc         1 HDW       0.041200
    104 H20         18.4370    -7.9660     0.7500 hc         1 HDW       0.037200
    105 H21         17.4560    -8.5470     2.0960 hc         1 HDW       0.037200
    106 H22         16.4600   -10.3120     0.6080 hc         1 HDW       0.050700
    107 H23         17.4410    -9.7320    -0.7380 hc         1 HDW       0.050700
    108 H24         19.5300   -10.2920     0.5520 hc         1 HDW       0.062700
    109 H25         18.5520   -10.8690     1.8900 hc         1 HDW       0.062700
    110 H26         15.1000    -1.0030     1.4460 hc         1 HDW       0.034700
    111 H27         14.1220    -1.6280     2.7750 hc         1 HDW       0.034700
    112 H28         12.9730     0.6580     3.0300 hc         1 HDW       0.034700
    113 H29         13.9480     1.3020     1.7090 hc         1 HDW       0.034700
    114 H30         11.8030     2.9320     3.2980 hc         1 HDW       0.033700
    115 H31         12.7700     3.5950     1.9810 hc         1 HDW       0.033700
    116 H32          9.7040     3.4430     2.0100 hc         1 HDW       0.060200
    117 H33         10.6720     4.1200     0.7020 hc         1 HDW       0.060200
    118 H34          8.9670     9.8190     2.2280 h1         1 HDW       0.102700
    119 H35          7.6330     8.6770     2.5670 h1         1 HDW       0.102700
    120 H36          6.1410    10.6590     3.2860 hc         1 HDW       0.061200
    121 H37          7.4190    11.8550     2.8910 hc         1 HDW       0.061200
    122 H38          3.2130    13.8440     2.1210 h1         1 HDW       0.066700
    123 H39          2.1810    12.4940     2.6260 h1         1 HDW       0.066700
    124 H40          1.7460    13.0860     0.2560 h1         1 HDW       0.027200
    125 H41          3.4610    12.8420    -0.1470 h1         1 HDW       0.027200
    126 H42          2.9140    10.9600    -1.6780 h1         1 HDW       0.022200
    127 H43          1.1800    11.1950    -1.3600 h1         1 HDW       0.022200
    128 H44          1.8950     8.8260    -2.0800 h1         1 HDW       0.021700
    129 H45          2.7290     8.6730    -0.5180 h1         1 HDW       0.021700
    130 H46          1.1200     6.9080     0.2730 h1         1 HDW       0.029200
    131 H47          0.3850     6.9640    -1.3380 h1         1 HDW       0.029200
    132 H48         -3.0540     5.9100     1.5570 h1         1 HDW       0.065700
    133 H49         -2.9660     3.9140    -0.7700 hc         1 HDW       0.058200
    134 H50         -4.3400     4.1720     0.2960 hc         1 HDW       0.058200
    135 H51         -4.5190     6.5420    -0.4700 hc         1 HDW       0.046200
    136 H52         -3.1340     6.2750    -1.5790 hc         1 HDW       0.046200
    137 H53         -6.2340     4.7390    -4.4350 h1         1 HDW       0.060700
    138 H54         -5.2920     2.8720    -5.8120 hc         1 HDW       0.057200
    139 H55         -3.7220     3.0900    -5.0510 hc         1 HDW       0.057200
    140 H56         -4.6690     2.4580    -2.8420 hc         1 HDW       0.053700
    141 H57         -6.3010     2.3300    -3.5760 hc         1 HDW       0.053700
    142 H58         -5.1100    -1.6260    -5.4560 h1         1 HDW       0.058200
    143 H59         -6.8740    -1.7180    -5.3220 h1         1 HDW       0.058200
    144 H60         -5.6970    -3.3870    -3.8550 h1         1 HDW       0.021200
    145 H61         -4.9150    -2.0550    -2.9730 h1         1 HDW       0.021200
    146 H62         -6.1660    -2.5970    -0.8490 h1         1 HDW       0.022200
    147 H63         -6.8160    -4.0190    -1.6960 h1         1 HDW       0.022200
    148 H64         -8.2290    -3.1320     0.2600 h1         1 HDW       0.021700
    149 H65         -8.5720    -1.6890    -0.7210 h1         1 HDW       0.021700
    150 H66        -11.0110    -2.3540    -0.8830 h1         1 HDW       0.020700
    151 H67        -10.6520    -3.7450     0.1560 h1         1 HDW       0.020700
    152 H68        -14.0330    -5.1570    -2.6500 h1         1 HDW       0.055700
    153 H69        -14.5740    -6.0230     0.2400 hc         1 HDW       0.047200
    154 H70        -15.3460    -6.6990    -1.1880 hc         1 HDW       0.047200
    155 H71        -13.0910    -7.4650    -2.0310 hc         1 HDW       0.037700
    156 H72        -12.3480    -6.8520    -0.5530 hc         1 HDW       0.037700
    157 H73        -13.7550    -8.4170     0.8110 hc         1 HDW       0.039200
    158 H74        -14.4880    -9.0440    -0.6680 hc         1 HDW       0.039200
    159 H75        -12.2440    -9.8450    -1.4500 h1         1 HDW       0.052700
    160 H76        -11.5030    -9.2040     0.0370 h1         1 HDW       0.052700
    161 H77        -12.8430   -12.7540     2.1790 h1         1 HDW       0.071200
    162 H78        -13.2200   -13.5470     0.6350 h1         1 HDW       0.071200
    163 H79        -12.8080   -15.0890     3.3390 h1         1 HDW       0.078200
    164 H80        -11.5740   -16.3510     3.1160 h1         1 HDW       0.078200
    165 H81        -13.8370   -15.7270     1.1370 h1         1 HDW       0.025700
    166 H82        -12.5860   -16.9670     0.9130 h1         1 HDW       0.025700
    167 H83         10.6700     7.3920     0.9670 hn         1 HDW       0.341500
    168 H84          4.0760    11.1720     2.9510 hn         1 HDW       0.329500
    169 H85         -0.5380     5.1080     0.1520 hn         1 HDW       0.285500
    170 H86         -3.4950     5.5280    -3.5420 hn         1 HDW       0.288500
    171 H87         -6.9130     0.4450    -4.4280 hn         1 HDW       0.324500
    172 H88        -13.1150    -3.5840    -0.2850 hn         1 HDW       0.291500
    173 H89        -13.6610   -11.0070     0.6850 hn         1 HDW       0.311500
    174 H90        -14.5430   -17.8290     1.8040 ho         1 HDW       0.441000
    175 O82         -3.6860     5.7780    -6.1580 o          1 HDW      -0.729500
    176 O83         -5.8000     6.0560    -6.4560 o          1 HDW      -0.729500
@<TRIPOS>BOND
     1     1    56 1   
     2     1    57 1   
     3     1    85 1   
     4     2    16 1   
     5     2    17 1   
     6     2    86 1   
     7     2    87 1   
     8     3    17 1   
     9     3    18 1   
    10     3    88 1   
    11     3    89 1   
    12     4     5 1   
    13     4    19 1   
    14     4    90 1   
    15     4    91 1   
    16     5    58 1   
    17     5    65 2   
    18     6    20 1   
    19     6    21 1   
    20     6    92 1   
    21     6    93 1   
    22     7     8 1   
    23     7    16 1   
    24     7    94 1   
    25     7    95 1   
    26     8     9 1   
    27     8    96 1   
    28     8    97 1   
    29     9    10 1   
    30     9    98 1   
    31     9    99 1   
    32    10    11 1   
    33    10   100 1   
    34    10   101 1   
    35    11    12 1   
    36    11   102 1   
    37    11   103 1   
    38    12    13 1   
    39    12   104 1   
    40    12   105 1   
    41    13    14 1   
    42    13   106 1   
    43    13   107 1   
    44    14    15 1   
    45    14   108 1   
    46    14   109 1   
    47    15    55 1   
    48    15    57 2   
    49    16   110 1   
    50    16   111 1   
    51    17   112 1   
    52    17   113 1   
    53    18    19 1   
    54    18   114 1   
    55    18   115 1   
    56    19   116 1   
    57    19   117 1   
    58    20    83 1   
    59    20   118 1   
    60    20   119 1   
    61    21    22 1   
    62    21   120 1   
    63    21   121 1   
    64    22    59 1   
    65    22    68 2   
    66    23    24 1   
    67    23    59 1   
    68    23   122 1   
    69    23   123 1   
    70    24    69 1   
    71    24   124 1   
    72    24   125 1   
    73    25    26 1   
    74    25    69 1   
    75    25   126 1   
    76    25   127 1   
    77    26    70 1   
    78    26   128 1   
    79    26   129 1   
    80    27    28 1   
    81    27    70 1   
    82    27   130 1   
    83    27   131 1   
    84    28    60 1   
    85    28    71 2   
    86    29    30 1   
    87    29    54 1   
    88    29    60 1   
    89    29   132 1   
    90    30    31 1   
    91    30   133 1   
    92    30   134 1   
    93    31    32 1   
    94    31   135 1   
    95    31   136 1   
    96    32    61 1   
    97    32    72 2   
    98    33    34 1   
    99    33    53 1   
   100    33    61 1   
   101    33   137 1   
   102    34    35 1   
   103    34   138 1   
   104    34   139 1   
   105    35    36 1   
   106    35   140 1   
   107    35   141 1   
   108    36    62 1   
   109    36    73 2   
   110    37    38 1   
   111    37    62 1   
   112    37   142 1   
   113    37   143 1   
   114    38    74 1   
   115    38   144 1   
   116    38   145 1   
   117    39    40 1   
   118    39    74 1   
   119    39   146 1   
   120    39   147 1   
   121    40    75 1   
   122    40   148 1   
   123    40   149 1   
   124    41    42 1   
   125    41    75 1   
   126    41   150 1   
   127    41   151 1   
   128    42    63 1   
   129    42    76 2   
   130    43    44 1   
   131    43    52 1   
   132    43    63 1   
   133    43   152 1   
   134    44    45 1   
   135    44   153 1   
   136    44   154 1   
   137    45    46 1   
   138    45   155 1   
   139    45   156 1   
   140    46    47 1   
   141    46   157 1   
   142    46   158 1   
   143    47    64 1   
   144    47   159 1   
   145    47   160 1   
   146    48    49 1   
   147    48    64 1   
   148    48    77 2   
   149    49    84 1   
   150    49   161 1   
   151    49   162 1   
   152    50    51 1   
   153    50    84 1   
   154    50   163 1   
   155    50   164 1   
   156    51    78 1   
   157    51   165 1   
   158    51   166 1   
   159    52    79 1   
   160    52    80 1   
   161    53   175 1   
   162    53   176 1   
   163    54    81 1   
   164    54    82 1   
   165    55    56 2   
   166    58    83 1   
   167    58   167 1   
   168    59   168 1   
   169    60   169 1   
   170    61   170 1   
   171    62   171 1   
   172    63   172 1   
   173    64   173 1   
   174    66    83 2   
   175    67    83 2   
   176    78   174 1   
@<TRIPOS>SUBSTRUCTURE
     1 HDW         1 TEMP              0 ****  ****    0 ROOT
