@<TRIPOS>MOLECULE
HDY
   57    60     1     0     0
SMALL
No Charge or Current Charge


@<TRIPOS>ATOM
      1 C10         -2.8570    -0.2000    -5.2410 c3         1 HDY      -0.027900
      2 C9          -1.5340    -0.0580    -5.9460 cc         1 HDY       0.140400
      3 N8          -1.5030     0.3910    -7.2510 nc         1 HDY      -0.305600
      4 C5          -0.2260     0.4370    -7.5730 cd         1 HDY      -0.061000
      5 C4           0.3460     0.8920    -8.7980 cd         1 HDY      -0.078000
      6 C3           1.7240     0.9250    -8.8340 cc         1 HDY      -0.099000
      7 C2           2.4960     0.5640    -7.6690 cc         1 HDY      -0.146000
      8 N6           0.5310    -0.0070    -6.5220 na         1 HDY       0.149100
      9 C1           1.9250     0.1340    -6.4750 cd         1 HDY      -0.108000
     10 C7          -0.2730    -0.3470    -5.4530 cd         1 HDY      -0.284900
     11 C11          0.1120    -0.7590    -4.0950 ca         1 HDY       0.274800
     12 C12          1.2090    -1.6060    -3.8570 ca         1 HDY      -0.292000
     13 C13          1.5440    -1.8880    -2.5250 ca         1 HDY       0.151900
     14 N14          0.8540    -1.3510    -1.5020 nb         1 HDY      -0.236000
     15 N16         -0.5630    -0.2070    -3.0670 nb         1 HDY      -0.252000
     16 C15         -0.1580    -0.5270    -1.8280 ca         1 HDY       0.395900
     17 N17         -0.9180     0.0360    -0.8080 nu         1 HDY      -0.922900
     18 C18         -0.8110     0.0840     0.5880 ca         1 HDY       0.276000
     19 C19         -1.9800     0.2660     1.3480 ca         1 HDY      -0.113500
     20 C20         -1.9200     0.3320     2.7530 ca         1 HDY      -0.144500
     21 C23          0.4280    -0.0060     1.2570 ca         1 HDY      -0.113500
     22 C22          0.4930     0.0600     2.6620 ca         1 HDY      -0.144500
     23 C21         -0.6880     0.2270     3.4170 ca         1 HDY       0.121100
     24 O24         -0.6890     0.2990     4.7950 os         1 HDY      -0.329100
     25 C25          0.5240     0.2030     5.5700 c3         1 HDY       0.159600
     26 C26          0.1700     0.3260     7.0760 c3         1 HDY       0.172300
     27 O31         -0.6010    -0.7920     7.5390 oh         1 HDY      -0.652000
     28 C27          1.4260     0.3860     7.9840 c3         1 HDY       0.119800
     29 N28          1.1390     0.0630     9.4150 n3         1 HDY      -0.737600
     30 C30          2.3760    -0.2090    10.1830 c3         1 HDY       0.151100
     31 C29          0.2910     1.0780    10.0900 c3         1 HDY       0.151100
     32 H101        -2.8930    -1.1300    -4.6630 hc         1 HDY       0.055700
     33 H102        -3.0210     0.6370    -4.5530 hc         1 HDY       0.055700
     34 H103        -3.6900    -0.2190    -5.9540 hc         1 HDY       0.055700
     35 H4          -0.2610     1.2130    -9.6380 ha         1 HDY       0.145000
     36 H3           2.2440     1.2610    -9.7260 ha         1 HDY       0.126000
     37 H2           3.5760     0.6570    -7.7360 ha         1 HDY       0.132000
     38 H1           2.4630    -0.1040    -5.5680 h4         1 HDY       0.150000
     39 H12          1.7640    -2.0580    -4.6730 ha         1 HDY       0.135000
     40 H13          2.3690    -2.5520    -2.2720 h4         1 HDY       0.021100
     41 H17         -1.7790     0.4490    -1.1650 hn         1 HDY       0.510000
     42 H19         -2.9430     0.3480     0.8510 ha         1 HDY       0.130000
     43 H20         -2.8330     0.4660     3.3290 ha         1 HDY       0.122500
     44 H23          1.3500    -0.1080     0.6950 ha         1 HDY       0.130000
     45 H22          1.4650    -0.0130     3.1420 ha         1 HDY       0.122500
     46 H251         1.2130     1.0130     5.2990 h1         1 HDY       0.037700
     47 H252         1.0270    -0.7560     5.3890 h1         1 HDY       0.037700
     48 H26         -0.3990     1.2540     7.2230 h1         1 HDY       0.046700
     49 H31         -0.2520    -0.9040     8.4600 ho         1 HDY       0.469000
     50 H271         1.8850     1.3800     7.8960 h1         1 HDY       0.043700
     51 H272         2.1550    -0.3360     7.5890 h1         1 HDY       0.043700
     52 H301         2.1370    -0.5140    11.2100 h1         1 HDY       0.035533
     53 H302         2.9530    -1.0190     9.7170 h1         1 HDY       0.035533
     54 H303         3.0140     0.6840    10.2280 h1         1 HDY       0.035533
     55 H291        -0.6700     1.2040     9.5750 h1         1 HDY       0.035533
     56 H292         0.0750     0.7760    11.1240 h1         1 HDY       0.035533
     57 H293         0.7950     2.0530    10.1180 h1         1 HDY       0.035533
@<TRIPOS>BOND
     1     1     2 1   
     2     1    32 1   
     3     1    33 1   
     4     1    34 1   
     5     2     3 1   
     6     2    10 2   
     7     3     4 2   
     8     4     5 1   
     9     4     8 1   
    10     5     6 2   
    11     5    35 1   
    12     6     7 1   
    13     6    36 1   
    14     7     9 2   
    15     7    37 1   
    16     8     9 1   
    17     8    10 1   
    18     9    38 1   
    19    10    11 1   
    20    11    12 ar  
    21    11    15 ar  
    22    12    13 ar  
    23    12    39 1   
    24    13    14 ar  
    25    13    40 1   
    26    14    16 ar  
    27    15    16 ar  
    28    16    17 1   
    29    17    18 1   
    30    17    41 1   
    31    18    19 ar  
    32    18    21 ar  
    33    19    20 ar  
    34    19    42 1   
    35    20    23 ar  
    36    20    43 1   
    37    21    22 ar  
    38    21    44 1   
    39    22    23 ar  
    40    22    45 1   
    41    23    24 1   
    42    24    25 1   
    43    25    26 1   
    44    25    46 1   
    45    25    47 1   
    46    26    27 1   
    47    26    28 1   
    48    26    48 1   
    49    27    49 1   
    50    28    29 1   
    51    28    50 1   
    52    28    51 1   
    53    29    30 1   
    54    29    31 1   
    55    30    52 1   
    56    30    53 1   
    57    30    54 1   
    58    31    55 1   
    59    31    56 1   
    60    31    57 1   
@<TRIPOS>SUBSTRUCTURE
     1 HDY         1 TEMP              0 ****  ****    0 ROOT
