@<TRIPOS>MOLECULE
HDY
   57    60     1     0     0
SMALL
bcc


@<TRIPOS>ATOM
      1 C10         -2.7410    -0.8410    -4.9690 c3         1 HDY      -0.027900
      2 C9          -1.5410    -0.4470    -5.7580 cc         1 HDY       0.140400
      3 N8          -1.6130    -0.3220    -7.0980 nc         1 HDY      -0.305600
      4 C5          -0.3920    -0.0230    -7.5090 cd         1 HDY      -0.010300
      5 C4           0.0820     0.2400    -8.8070 cd         1 HDY      -0.096000
      6 C3           1.3940     0.5720    -8.9830 cc         1 HDY      -0.117000
      7 C2           2.2560     0.6660    -7.8650 cc         1 HDY      -0.164000
      8 N6           0.4890     0.0350    -6.4460 na         1 HDY       0.047700
      9 C1           1.7920     0.4050    -6.6160 cd         1 HDY      -0.075300
     10 C7          -0.2460    -0.2410    -5.3070 cd         1 HDY      -0.284900
     11 C11          0.3220    -0.3740    -3.9750 ca         1 HDY       0.603100
     12 C12          1.5750    -0.9570    -3.7470 ca         1 HDY      -0.440600
     13 C13          1.9780    -1.0420    -2.4310 ca         1 HDY       0.480200
     14 N14          1.2420    -0.6210    -1.4110 nb         1 HDY      -0.762000
     15 N16         -0.4250     0.0470    -2.9630 nb         1 HDY      -0.778000
     16 C15          0.0560    -0.1050    -1.7260 ca         1 HDY       0.921900
     17 N17         -0.7800     0.3310    -0.7500 nu         1 HDY      -0.729300
     18 C18         -0.6570     0.3490     0.6400 ca         1 HDY       0.137600
     19 C19         -1.7500     0.8550     1.3550 ca         1 HDY      -0.131500
     20 C20         -1.7390     0.9210     2.7320 ca         1 HDY      -0.162500
     21 C23          0.4500    -0.0860     1.3630 ca         1 HDY      -0.131500
     22 C22          0.4620    -0.0190     2.7540 ca         1 HDY      -0.162500
     23 C21         -0.6280     0.4830     3.4540 ca         1 HDY       0.121100
     24 O24         -0.7040     0.5840     4.7990 os         1 HDY      -0.305900
     25 C25          0.4090     0.1770     5.5710 c3         1 HDY       0.136400
     26 C26          0.0740     0.3800     7.0300 c3         1 HDY       0.149100
     27 O31         -0.9720    -0.4820     7.4050 oh         1 HDY      -0.589800
     28 C27          1.3090     0.0910     7.8880 c3         1 HDY       0.119800
     29 N28          0.9210    -0.0340     9.2820 n3         1 HDY      -0.737600
     30 C30          1.8720    -0.8070    10.0550 c3         1 HDY       0.151100
     31 C29          0.6630     1.2510     9.9030 c3         1 HDY       0.151100
     32 H101        -2.9220    -1.9140    -5.0610 hc         1 HDY       0.055700
     33 H102        -2.6290    -0.6050    -3.9150 hc         1 HDY       0.055700
     34 H103        -3.6250    -0.3300    -5.3490 hc         1 HDY       0.055700
     35 H4          -0.6120     0.1770    -9.6330 ha         1 HDY       0.163000
     36 H3           1.7770     0.7770    -9.9730 ha         1 HDY       0.144000
     37 H2           3.2900     0.9520    -7.9860 ha         1 HDY       0.150000
     38 H1           2.4050     0.4910    -5.7340 h4         1 HDY       0.168000
     39 H12          2.1880    -1.3600    -4.5390 ha         1 HDY       0.153000
     40 H13          2.9370    -1.4820    -2.1810 h4         1 HDY       0.021100
     41 H17         -1.6470     0.7030    -1.1090 hn         1 HDY       0.454800
     42 H19         -2.6260     1.2030     0.8220 ha         1 HDY       0.148000
     43 H20         -2.5990     1.3170     3.2570 ha         1 HDY       0.140500
     44 H23          1.3120    -0.4840     0.8550 ha         1 HDY       0.148000
     45 H22          1.3470    -0.3720     3.2650 ha         1 HDY       0.140500
     46 H251         1.2950     0.7710     5.3130 h1         1 HDY       0.037700
     47 H252         0.6470    -0.8780     5.3880 h1         1 HDY       0.037700
     48 H26         -0.2220     1.4310     7.1680 h1         1 HDY       0.046700
     49 H31         -0.7990    -0.6770     8.3420 ho         1 HDY       0.430000
     50 H271         2.0740     0.8650     7.7260 h1         1 HDY       0.043700
     51 H272         1.7430    -0.8630     7.5730 h1         1 HDY       0.043700
     52 H301         1.4810    -0.9760    11.0590 h1         1 HDY       0.035533
     53 H302         2.0310    -1.7790     9.5880 h1         1 HDY       0.035533
     54 H303         2.8500    -0.3150    10.1540 h1         1 HDY       0.035533
     55 H291        -0.1270     1.7880     9.3770 h1         1 HDY       0.035533
     56 H292         0.3310     1.1050    10.9300 h1         1 HDY       0.035533
     57 H293         1.5540     1.8960     9.9210 h1         1 HDY       0.035533
@<TRIPOS>BOND
     1     1     2 1   
     2     1    32 1   
     3     1    33 1   
     4     1    34 1   
     5     2     3 1   
     6     2    10 2   
     7     3     4 2   
     8     4     5 1   
     9     4     8 1   
    10     5     6 2   
    11     5    35 1   
    12     6     7 1   
    13     6    36 1   
    14     7     9 2   
    15     7    37 1   
    16     8     9 1   
    17     8    10 1   
    18     9    38 1   
    19    10    11 1   
    20    11    12 ar  
    21    11    15 ar  
    22    12    13 ar  
    23    12    39 1   
    24    13    14 ar  
    25    13    40 1   
    26    14    16 ar  
    27    15    16 ar  
    28    16    17 1   
    29    17    18 1   
    30    17    41 1   
    31    18    19 ar  
    32    18    21 ar  
    33    19    20 ar  
    34    19    42 1   
    35    20    23 ar  
    36    20    43 1   
    37    21    22 ar  
    38    21    44 1   
    39    22    23 ar  
    40    22    45 1   
    41    23    24 1   
    42    24    25 1   
    43    25    26 1   
    44    25    46 1   
    45    25    47 1   
    46    26    27 1   
    47    26    28 1   
    48    26    48 1   
    49    27    49 1   
    50    28    29 1   
    51    28    50 1   
    52    28    51 1   
    53    29    30 1   
    54    29    31 1   
    55    30    52 1   
    56    30    53 1   
    57    30    54 1   
    58    31    55 1   
    59    31    56 1   
    60    31    57 1   
@<TRIPOS>SUBSTRUCTURE
     1 HDY         1 TEMP              0 ****  ****    0 ROOT
