@<TRIPOS>MOLECULE
HE0
   55    55     1     0     0
SMALL
abcg2


@<TRIPOS>ATOM
      1 S1          -4.3420    -1.1400    -0.7250 ss         1 HE0      -0.535000
      2 C2          -6.1590    -0.9140    -0.4880 c5         1 HE0       0.161000
      3 C3          -6.2970     0.6040    -0.2340 c5         1 HE0       0.028500
      4 N4          -5.1450     0.9610     0.5760 n7         1 HE0      -0.880400
      5 C5          -3.9070     0.4740     0.0150 c5         1 HE0       0.347500
      6 C6          -2.8430     0.3270     1.1070 c3         1 HE0      -0.008300
      7 C7          -3.2670    -0.6760     2.1570 c          1 HE0       0.580900
      8 N8          -1.5630     0.0090     0.5430 ns         1 HE0      -0.485900
      9 C9          -0.3990     0.3390     1.1410 c          1 HE0       0.607100
     10 O10         -0.3490     1.0550     2.1300 o          1 HE0      -0.625100
     11 C11          0.8390    -0.2350     0.4900 c3         1 HE0      -0.155400
     12 C12          1.9970     0.7540     0.4380 c3         1 HE0      -0.067400
     13 C13          3.2430     0.1390    -0.1850 c3         1 HE0      -0.080400
     14 C14          4.3870     1.1380    -0.3130 c3         1 HE0      -0.070400
     15 C15          5.6590     0.5390    -0.9100 c3         1 HE0      -0.043300
     16 C16          6.7020     1.6370    -1.2550 c          1 HE0       0.715000
     17 O17          7.8020     1.5910    -0.6810 o          1 HE0      -0.729000
     18 O18          6.3210     2.4770    -2.0950 o          1 HE0      -0.729000
     19 N19          6.1870    -0.4640    -0.0140 ns         1 HE0      -0.452900
     20 C20          7.0810    -1.3840    -0.4020 c          1 HE0       0.609100
     21 O21          7.3300    -1.6340    -1.5750 o          1 HE0      -0.624100
     22 C22          7.7900    -2.1030     0.7300 c3         1 HE0       0.055800
     23 N23          8.2040    -3.4300     0.3230 n8         1 HE0      -0.985200
     24 C24         -6.8750    -1.4300    -1.7290 c3         1 HE0      -0.070100
     25 C25         -6.6240    -1.7030     0.7320 c3         1 HE0      -0.070100
     26 C26         -6.4870     1.4380    -1.5230 c          1 HE0       0.702000
     27 O27         -7.6580     1.5150    -1.9430 o          1 HE0      -0.720000
     28 O28         -5.4770     1.9660    -2.0260 o          1 HE0      -0.720000
     29 O29         -2.5470    -1.5380     2.5900 o          1 HE0      -0.542100
     30 H3          -7.1940     0.7440     0.3790 h1         1 HE0       0.062700
     31 HN4         -5.0870     1.9660     0.6920 hn         1 HE0       0.426000
     32 H5          -3.5000     1.1110    -0.7750 h2         1 HE0       0.101700
     33 H6          -2.7710     1.2980     1.6130 h1         1 HE0       0.094700
     34 H7          -4.2930    -0.5330     2.5320 h4         1 HE0       0.005200
     35 HN8         -1.5310    -0.6660    -0.2050 hn         1 HE0       0.321500
     36 H11          1.1330    -1.1160     1.0720 hc         1 HE0       0.054200
     37 H11A         0.6090    -0.5970    -0.5150 hc         1 HE0       0.054200
     38 H12          1.6960     1.6360    -0.1360 hc         1 HE0       0.048200
     39 H12A         2.2280     1.1030     1.4470 hc         1 HE0       0.048200
     40 H13          3.5570    -0.7220     0.4120 hc         1 HE0       0.033200
     41 H13A         3.0010    -0.2510    -1.1800 hc         1 HE0       0.033200
     42 H14          4.0720     1.9670    -0.9480 hc         1 HE0       0.046700
     43 H14A         4.6130     1.5730     0.6680 hc         1 HE0       0.046700
     44 H15          5.3870     0.0410    -1.8460 h1         1 HE0       0.065700
     45 HN19         6.1440    -0.2540     0.9710 hn         1 HE0       0.285500
     46 H22          8.6160    -1.4440     1.0440 h1         1 HE0       0.036700
     47 H22A         7.1270    -2.1820     1.5940 h1         1 HE0       0.036700
     48 HN23         8.8580    -3.3560    -0.4450 hn         1 HE0       0.387500
     49 HN2A         8.7110    -3.8640     1.0820 hn         1 HE0       0.387500
     50 H24         -6.7310    -2.5080    -1.8210 hc         1 HE0       0.035033
     51 H24A        -7.9460    -1.2430    -1.6530 hc         1 HE0       0.035033
     52 H24B        -6.5100    -0.9650    -2.6430 hc         1 HE0       0.035033
     53 H25         -6.1790    -1.3270     1.6510 hc         1 HE0       0.035033
     54 H25A        -7.7100    -1.6270     0.8290 hc         1 HE0       0.035033
     55 H25B        -6.3710    -2.7600     0.6380 hc         1 HE0       0.035033
@<TRIPOS>BOND
     1     1     2 1   
     2     1     5 1   
     3     2     3 1   
     4     2    24 1   
     5     2    25 1   
     6     3     4 1   
     7     3    26 1   
     8     3    30 1   
     9     4     5 1   
    10     4    31 1   
    11     5     6 1   
    12     5    32 1   
    13     6     7 1   
    14     6     8 1   
    15     6    33 1   
    16     7    29 2   
    17     7    34 1   
    18     8     9 1   
    19     8    35 1   
    20     9    10 2   
    21     9    11 1   
    22    11    12 1   
    23    11    36 1   
    24    11    37 1   
    25    12    13 1   
    26    12    38 1   
    27    12    39 1   
    28    13    14 1   
    29    13    40 1   
    30    13    41 1   
    31    14    15 1   
    32    14    42 1   
    33    14    43 1   
    34    15    16 1   
    35    15    19 1   
    36    15    44 1   
    37    16    17 1   
    38    16    18 1   
    39    19    20 1   
    40    19    45 1   
    41    20    21 2   
    42    20    22 1   
    43    22    23 1   
    44    22    46 1   
    45    22    47 1   
    46    23    48 1   
    47    23    49 1   
    48    24    50 1   
    49    24    51 1   
    50    24    52 1   
    51    25    53 1   
    52    25    54 1   
    53    25    55 1   
    54    26    27 1   
    55    26    28 1   
@<TRIPOS>SUBSTRUCTURE
     1 HE0         1 TEMP              0 ****  ****    0 ROOT
