@<TRIPOS>MOLECULE
HE0
   55    55     1     0     0
SMALL
No Charge or Current Charge


@<TRIPOS>ATOM
      1 S1          -3.6490    -0.9910    -0.5180 ss         1 HE0      -0.535000
      2 C2          -4.9040     0.2590    -1.0760 c5         1 HE0       0.161000
      3 C3          -5.6150     0.7420     0.2560 c5         1 HE0       0.028500
      4 N4          -5.0670    -0.0890     1.4060 n7         1 HE0      -0.880400
      5 C5          -3.6250    -0.2490     1.1650 c5         1 HE0       0.347500
      6 C6          -2.9340    -1.1900     2.1870 c3         1 HE0      -0.008300
      7 C7          -3.6490    -2.5600     2.2470 c          1 HE0       0.580900
      8 N8          -1.4740    -1.3720     1.9590 ns         1 HE0      -0.485900
      9 C9          -0.5370    -0.3660     1.9930 c          1 HE0       0.607100
     10 O10         -0.8260     0.7830     2.2970 o          1 HE0      -0.625100
     11 C11          0.8960    -0.8000     1.6660 c3         1 HE0      -0.155400
     12 C12          1.3260    -0.3180     0.2610 c3         1 HE0      -0.067400
     13 C13          2.7640    -0.7450    -0.1100 c3         1 HE0      -0.080400
     14 C14          3.1950    -0.2610    -1.5140 c3         1 HE0      -0.070400
     15 C15          4.6070    -0.7340    -1.9510 c3         1 HE0      -0.043300
     16 C16          4.8950    -0.3590    -3.4380 c          1 HE0       0.715000
     17 O17          5.1210     0.8130    -3.7130 o          1 HE0      -0.729000
     18 O18          4.9700    -1.2640    -4.2570 o          1 HE0      -0.729000
     19 N19          5.6750    -0.1980    -1.0700 ns         1 HE0      -0.452900
     20 C20          6.2610    -0.8690    -0.0130 c          1 HE0       0.609100
     21 O21          5.9530    -2.0200     0.2860 o          1 HE0      -0.624100
     22 C22          7.3560    -0.0440     0.7520 c3         1 HE0       0.055800
     23 N23          7.7790    -0.5240     2.1150 n8         1 HE0      -0.985200
     24 C24         -4.1400     1.3430    -1.8850 c3         1 HE0      -0.070100
     25 C25         -5.8940    -0.4590    -2.0260 c3         1 HE0      -0.070100
     26 C26         -5.5230     2.3190     0.4130 c          1 HE0       0.702000
     27 O27         -6.3910     3.0100    -0.1010 o          1 HE0      -0.720000
     28 O28         -4.6820     2.8040     1.1610 o          1 HE0      -0.720000
     29 O29         -3.0720    -3.6400     2.1210 o          1 HE0      -0.542100
     30 H3          -6.6930     0.5430     0.1840 h1         1 HE0       0.062700
     31 HN4         -5.2050     0.4300     2.2830 hn         1 HE0       0.426000
     32 H5          -3.1070     0.7210     1.1340 h2         1 HE0       0.101700
     33 H6          -3.0640    -0.7400     3.1790 h1         1 HE0       0.094700
     34 H7          -4.7440    -2.5260     2.4420 h4         1 HE0       0.005200
     35 HN8         -1.1410    -2.2960     1.7040 hn         1 HE0       0.321500
     36 H11          1.5740    -0.3600     2.4070 hc         1 HE0       0.054200
     37 H11A         0.9720    -1.8930     1.6950 hc         1 HE0       0.054200
     38 H12          0.6270    -0.7170    -0.4860 hc         1 HE0       0.048200
     39 H12A         1.2520     0.7760     0.2150 hc         1 HE0       0.048200
     40 H13          3.4550    -0.3470     0.6430 hc         1 HE0       0.033200
     41 H13A         2.8370    -1.8390    -0.0680 hc         1 HE0       0.033200
     42 H14          2.4660    -0.6250    -2.2490 hc         1 HE0       0.046700
     43 H14A         3.1540     0.8340    -1.5470 hc         1 HE0       0.046700
     44 H15          4.6300    -1.8300    -1.8980 h1         1 HE0       0.065700
     45 HN19         6.0130     0.7400    -1.2550 hn         1 HE0       0.285500
     46 H22          8.2420    -0.0100     0.1040 h1         1 HE0       0.036700
     47 H22A         6.9850     0.9860     0.8530 h1         1 HE0       0.036700
     48 HN23         8.1460    -1.4810     2.0370 hn         1 HE0       0.387500
     49 HN2A         8.5850     0.0260     2.4400 hn         1 HE0       0.387500
     50 H24         -3.6190     0.9010    -2.7430 hc         1 HE0       0.035033
     51 H24A        -4.8200     2.1080    -2.2780 hc         1 HE0       0.035033
     52 H24B        -3.3820     1.8450    -1.2720 hc         1 HE0       0.035033
     53 H25         -6.4020    -1.2860    -1.5150 hc         1 HE0       0.035033
     54 H25A        -6.6650     0.2320    -2.3870 hc         1 HE0       0.035033
     55 H25B        -5.3810    -0.8750    -2.9010 hc         1 HE0       0.035033
@<TRIPOS>BOND
     1     1     2 1   
     2     1     5 1   
     3     2     3 1   
     4     2    24 1   
     5     2    25 1   
     6     3     4 1   
     7     3    26 1   
     8     3    30 1   
     9     4     5 1   
    10     4    31 1   
    11     5     6 1   
    12     5    32 1   
    13     6     7 1   
    14     6     8 1   
    15     6    33 1   
    16     7    29 2   
    17     7    34 1   
    18     8     9 1   
    19     8    35 1   
    20     9    10 2   
    21     9    11 1   
    22    11    12 1   
    23    11    36 1   
    24    11    37 1   
    25    12    13 1   
    26    12    38 1   
    27    12    39 1   
    28    13    14 1   
    29    13    40 1   
    30    13    41 1   
    31    14    15 1   
    32    14    42 1   
    33    14    43 1   
    34    15    16 1   
    35    15    19 1   
    36    15    44 1   
    37    16    17 1   
    38    16    18 1   
    39    19    20 1   
    40    19    45 1   
    41    20    21 2   
    42    20    22 1   
    43    22    23 1   
    44    22    46 1   
    45    22    47 1   
    46    23    48 1   
    47    23    49 1   
    48    24    50 1   
    49    24    51 1   
    50    24    52 1   
    51    25    53 1   
    52    25    54 1   
    53    25    55 1   
    54    26    27 1   
    55    26    28 1   
@<TRIPOS>SUBSTRUCTURE
     1 HE0         1 TEMP              0 ****  ****    0 ROOT
