@<TRIPOS>MOLECULE
HE1
   27    27     1     0     0
SMALL
No Charge or Current Charge


@<TRIPOS>ATOM
      1 P1           1.0660     1.1960     2.6250 p5         1 HE1       1.140100
      2 O1           0.2910     0.6590     3.7780 o          1 HE1      -0.931167
      3 O2           0.3800     2.4610     2.2380 o          1 HE1      -0.931167
      4 O3           2.5250     1.3540     2.8910 o          1 HE1      -0.931167
      5 C1           0.7830    -0.0020     1.2040 c2         1 HE1      -0.185600
      6 C2           1.7020    -0.6620     0.4690 c2         1 HE1      -0.322200
      7 C3           1.8480    -3.0580    -0.3730 c3         1 HE1       0.108600
      8 C4           1.3990    -1.6140    -0.6730 c3         1 HE1      -0.022200
      9 S1           1.4610    -4.1720    -1.8040 ss         1 HE1      -0.324000
     10 C5           2.9190    -8.4220    -0.6780 ca         1 HE1      -0.071000
     11 C6           2.3270    -8.1690    -1.9250 ca         1 HE1      -0.171000
     12 C7           1.8930    -6.8740    -2.2440 ca         1 HE1       0.183100
     13 C8           2.0420    -5.8140    -1.3290 ca         1 HE1      -0.190000
     14 C9           2.6380    -6.0740    -0.0750 ca         1 HE1      -0.029000
     15 C10          3.0720    -7.3730     0.2440 ca         1 HE1      -0.176000
     16 H1          -0.2800    -0.1230     1.0110 ha         1 HE1       0.111000
     17 H2           2.7650    -0.5220     0.6780 ha         1 HE1       0.179000
     18 H31          1.3270    -3.4240     0.5210 h1         1 HE1       0.064200
     19 H32          2.9290    -3.0750    -0.1860 h1         1 HE1       0.064200
     20 H41          0.3240    -1.6170    -0.8900 hc         1 HE1       0.019700
     21 H42          1.9010    -1.2660    -1.5840 hc         1 HE1       0.019700
     22 HO7          1.1040    -5.6680    -3.4410 ho         1 HE1       0.498000
     23 H5           3.2570    -9.4250    -0.4260 ha         1 HE1       0.096000
     24 H6           2.2050    -8.9760    -2.6430 ha         1 HE1       0.116000
     25 H9           2.7720    -5.2880     0.6620 ha         1 HE1       0.123000
     26 H10          3.5310    -7.5670     1.2110 ha         1 HE1       0.102000
     27 OH           1.3200    -6.6260    -3.4490 oh         1 HE1      -0.540100
@<TRIPOS>BOND
     1     1     2 1   
     2     1     3 1   
     3     1     4 1   
     4     1     5 1   
     5     5     6 2   
     6     5    16 1   
     7     6     8 1   
     8     6    17 1   
     9     7     8 1   
    10     7     9 1   
    11     7    18 1   
    12     7    19 1   
    13     8    20 1   
    14     8    21 1   
    15     9    13 1   
    16    10    11 ar  
    17    10    15 ar  
    18    10    23 1   
    19    11    12 ar  
    20    11    24 1   
    21    12    13 ar  
    22    12    27 1   
    23    13    14 ar  
    24    14    15 ar  
    25    14    25 1   
    26    15    26 1   
    27    22    27 1   
@<TRIPOS>SUBSTRUCTURE
     1 HE1         1 TEMP              0 ****  ****    0 ROOT
