@<TRIPOS>MOLECULE
HE1
   27    27     1     0     0
SMALL
abcg2


@<TRIPOS>ATOM
      1 P1           0.2310     0.8250     2.4150 p5         1 HE1       1.140100
      2 O1          -1.1530     0.3210     2.8420 o          1 HE1      -0.931167
      3 O2           0.2290     2.2870     1.9520 o          1 HE1      -0.931167
      4 O3           1.3540     0.4800     3.3980 o          1 HE1      -0.931167
      5 C1           0.5990    -0.1180     0.8760 c2         1 HE1      -0.185600
      6 C2           1.6780    -0.8660     0.6530 c2         1 HE1      -0.322200
      7 C3           2.1030    -3.1030    -0.3670 c3         1 HE1       0.108600
      8 C4           1.9800    -1.6040    -0.6180 c3         1 HE1      -0.022200
      9 S1           2.5320    -3.9420    -1.9350 ss         1 HE1      -0.324000
     10 C5           2.7050    -8.2910    -0.6330 ca         1 HE1      -0.071000
     11 C6           1.5100    -7.7490    -1.0730 ca         1 HE1      -0.171000
     12 C7           1.4520    -6.4140    -1.4700 ca         1 HE1       0.183100
     13 C8           2.6120    -5.6290    -1.4120 ca         1 HE1      -0.190000
     14 C9           3.8070    -6.1920    -0.9750 ca         1 HE1      -0.029000
     15 C10          3.8620    -7.5200    -0.5820 ca         1 HE1      -0.176000
     16 H1          -0.1270    -0.0370     0.0630 ha         1 HE1       0.111000
     17 H2           2.4190    -0.9660     1.4430 ha         1 HE1       0.179000
     18 H31          1.1640    -3.5090     0.0110 h1         1 HE1       0.064200
     19 H32          2.8880    -3.3120     0.3600 h1         1 HE1       0.064200
     20 H41          1.2000    -1.4150    -1.3600 hc         1 HE1       0.019700
     21 H42          2.9220    -1.2410    -1.0440 hc         1 HE1       0.019700
     22 HO7          0.4150    -5.0130    -2.2040 ho         1 HE1       0.498000
     23 H5           2.7340    -9.3290    -0.3300 ha         1 HE1       0.096000
     24 H6           0.6140    -8.3560    -1.1150 ha         1 HE1       0.116000
     25 H9           4.6970    -5.5760    -0.9460 ha         1 HE1       0.123000
     26 H10          4.7950    -7.9490    -0.2430 ha         1 HE1       0.102000
     27 OH           0.2790    -5.9240    -1.8940 oh         1 HE1      -0.540100
@<TRIPOS>BOND
     1     1     2 1   
     2     1     3 1   
     3     1     4 1   
     4     1     5 1   
     5     5     6 2   
     6     5    16 1   
     7     6     8 1   
     8     6    17 1   
     9     7     8 1   
    10     7     9 1   
    11     7    18 1   
    12     7    19 1   
    13     8    20 1   
    14     8    21 1   
    15     9    13 1   
    16    10    11 ar  
    17    10    15 ar  
    18    10    23 1   
    19    11    12 ar  
    20    11    24 1   
    21    12    13 ar  
    22    12    27 1   
    23    13    14 ar  
    24    14    15 ar  
    25    14    25 1   
    26    15    26 1   
    27    22    27 1   
@<TRIPOS>SUBSTRUCTURE
     1 HE1         1 TEMP              0 ****  ****    0 ROOT
