@<TRIPOS>MOLECULE
HE2
   21    20     1     0     0
SMALL
abcg2


@<TRIPOS>ATOM
      1 CAA          3.8480    -0.3370     0.0210 c3         1 HE2      -0.088100
      2 CAC          2.5770     0.5020     0.0090 c3         1 HE2      -0.075400
      3 CAE          1.3120    -0.3480     0.0130 c3         1 HE2      -0.075400
      4 CAG          0.0330     0.4790     0.0020 c3         1 HE2      -0.075400
      5 CAF         -1.2290    -0.3750     0.0040 c3         1 HE2      -0.081400
      6 CAD         -2.4870     0.4700    -0.0080 c3         1 HE2       0.163600
      7 OAB         -3.6180    -0.3760    -0.0040 oh         1 HE2      -0.663000
      8 HAA1         4.7430     0.2860     0.0220 hc         1 HE2       0.032033
      9 HAA2         3.8890    -0.9740     0.9060 hc         1 HE2       0.032033
     10 HAA3         3.8990    -0.9860    -0.8550 hc         1 HE2       0.032033
     11 HAC1         2.5680     1.1690     0.8760 hc         1 HE2       0.036700
     12 HAC2         2.5730     1.1510    -0.8730 hc         1 HE2       0.036700
     13 HAE1         1.3220    -1.0160    -0.8560 hc         1 HE2       0.039200
     14 HAE2         1.3160    -0.9990     0.8950 hc         1 HE2       0.039200
     15 HAG1         0.0250     1.1450     0.8710 hc         1 HE2       0.036700
     16 HAG2         0.0320     1.1300    -0.8800 hc         1 HE2       0.036700
     17 HAF1        -1.2260    -1.0340    -0.8700 hc         1 HE2       0.051700
     18 HAF2        -1.2330    -1.0210     0.8870 hc         1 HE2       0.051700
     19 HAD1        -2.4830     1.1350     0.8670 h1         1 HE2       0.014700
     20 HAD2        -2.4770     1.1190    -0.8950 h1         1 HE2       0.014700
     21 HAB         -4.4050     0.1750    -0.0060 ho         1 HE2       0.442000
@<TRIPOS>BOND
     1     1     2 1   
     2     1     8 1   
     3     1     9 1   
     4     1    10 1   
     5     2     3 1   
     6     2    11 1   
     7     2    12 1   
     8     3     4 1   
     9     3    13 1   
    10     3    14 1   
    11     4     5 1   
    12     4    15 1   
    13     4    16 1   
    14     5     6 1   
    15     5    17 1   
    16     5    18 1   
    17     6     7 1   
    18     6    19 1   
    19     6    20 1   
    20     7    21 1   
@<TRIPOS>SUBSTRUCTURE
     1 HE2         1 TEMP              0 ****  ****    0 ROOT
