@<TRIPOS>MOLECULE
HE2
   21    20     1     0     0
SMALL
No Charge or Current Charge


@<TRIPOS>ATOM
      1 CAA          3.9020    -0.3450     0.0210 c3         1 HE2      -0.088100
      2 CAC          2.6120     0.4990     0.0090 c3         1 HE2      -0.075400
      3 CAE          1.3280    -0.3590     0.0130 c3         1 HE2      -0.075400
      4 CAG          0.0360     0.4870     0.0010 c3         1 HE2      -0.075400
      5 CAF         -1.2490    -0.3710     0.0040 c3         1 HE2      -0.081400
      6 CAD         -2.5370     0.4760    -0.0070 c3         1 HE2       0.163600
      7 OAB         -3.6810    -0.3830    -0.0040 oh         1 HE2      -0.663000
      8 HAA1         4.7840     0.3060     0.0180 hc         1 HE2       0.032033
      9 HAA2         3.9440    -0.9770     0.9170 hc         1 HE2       0.032033
     10 HAA3         3.9500    -0.9920    -0.8630 hc         1 HE2       0.032033
     11 HAC1         2.6110     1.1590     0.8850 hc         1 HE2       0.036700
     12 HAC2         2.6170     1.1440    -0.8780 hc         1 HE2       0.036700
     13 HAE1         1.3340    -1.0200    -0.8640 hc         1 HE2       0.039200
     14 HAE2         1.3290    -1.0050     0.9000 hc         1 HE2       0.039200
     15 HAG1         0.0300     1.1470     0.8770 hc         1 HE2       0.036700
     16 HAG2         0.0360     1.1320    -0.8870 hc         1 HE2       0.036700
     17 HAF1        -1.2460    -1.0300    -0.8720 hc         1 HE2       0.051700
     18 HAF2        -1.2510    -1.0150     0.8920 hc         1 HE2       0.051700
     19 HAD1        -2.5500     1.1300     0.8750 h1         1 HE2       0.014700
     20 HAD2        -2.5440     1.1140    -0.9010 h1         1 HE2       0.014700
     21 HAB         -4.4740     0.1990    -0.0110 ho         1 HE2       0.442000
@<TRIPOS>BOND
     1     1     2 1   
     2     1     8 1   
     3     1     9 1   
     4     1    10 1   
     5     2     3 1   
     6     2    11 1   
     7     2    12 1   
     8     3     4 1   
     9     3    13 1   
    10     3    14 1   
    11     4     5 1   
    12     4    15 1   
    13     4    16 1   
    14     5     6 1   
    15     5    17 1   
    16     5    18 1   
    17     6     7 1   
    18     6    19 1   
    19     6    20 1   
    20     7    21 1   
@<TRIPOS>SUBSTRUCTURE
     1 HE2         1 TEMP              0 ****  ****    0 ROOT
