@<TRIPOS>MOLECULE
HE4
   24    23     1     0     0
SMALL
No Charge or Current Charge


@<TRIPOS>ATOM
      1 CAA          4.5640    -0.2740     0.0230 c3         1 HE4      -0.089100
      2 CAC          3.2550     0.5380     0.0050 c3         1 HE4      -0.074400
      3 CAE          1.9920    -0.3510     0.0180 c3         1 HE4      -0.076400
      4 CAG          0.6790     0.4630    -0.0000 c3         1 HE4      -0.074400
      5 CAH         -0.5840    -0.4260     0.0130 c3         1 HE4      -0.075400
      6 CAF         -1.8970     0.3870    -0.0050 c3         1 HE4      -0.081400
      7 CAD         -3.1560    -0.5030     0.0080 c3         1 HE4       0.163600
      8 OAB         -4.3280     0.3160    -0.0100 oh         1 HE4      -0.662000
      9 HAA1         5.4310     0.3980     0.0130 hc         1 HE4       0.031367
     10 HAA2         4.6230    -0.8960     0.9240 hc         1 HE4       0.031367
     11 HAA3         4.6270    -0.9280    -0.8560 hc         1 HE4       0.031367
     12 HAC1         3.2380     1.2060     0.8750 hc         1 HE4       0.037200
     13 HAC2         3.2420     1.1750    -0.8890 hc         1 HE4       0.037200
     14 HAE1         2.0130    -1.0190    -0.8520 hc         1 HE4       0.036700
     15 HAE2         2.0090    -0.9870     0.9110 hc         1 HE4       0.036700
     16 HAG1         0.6580     1.1310     0.8700 hc         1 HE4       0.039200
     17 HAG2         0.6620     1.1000    -0.8940 hc         1 HE4       0.039200
     18 HAH1        -0.5620    -1.0950    -0.8570 hc         1 HE4       0.036700
     19 HAH2        -0.5670    -1.0630     0.9060 hc         1 HE4       0.036700
     20 HAF1        -1.9210     1.0540     0.8650 hc         1 HE4       0.052200
     21 HAF2        -1.9160     1.0230    -0.8990 hc         1 HE4       0.052200
     22 HAD1        -3.1410    -1.1650    -0.8690 h1         1 HE4       0.014700
     23 HAD2        -3.1460    -1.1330     0.9080 h1         1 HE4       0.014700
     24 HAB         -5.1010    -0.2920    -0.0010 ho         1 HE4       0.442000
@<TRIPOS>BOND
     1     1     2 1   
     2     1     9 1   
     3     1    10 1   
     4     1    11 1   
     5     2     3 1   
     6     2    12 1   
     7     2    13 1   
     8     3     4 1   
     9     3    14 1   
    10     3    15 1   
    11     4     5 1   
    12     4    16 1   
    13     4    17 1   
    14     5     6 1   
    15     5    18 1   
    16     5    19 1   
    17     6     7 1   
    18     6    20 1   
    19     6    21 1   
    20     7     8 1   
    21     7    22 1   
    22     7    23 1   
    23     8    24 1   
@<TRIPOS>SUBSTRUCTURE
     1 HE4         1 TEMP              0 ****  ****    0 ROOT
