@<TRIPOS>MOLECULE
HE4
   24    23     1     0     0
SMALL
bcc


@<TRIPOS>ATOM
      1 CAA          4.4990    -0.2850     0.0220 c3         1 HE4      -0.089100
      2 CAC          3.2170     0.5360     0.0050 c3         1 HE4      -0.074400
      3 CAE          1.9640    -0.3320     0.0170 c3         1 HE4      -0.076400
      4 CAG          0.6700     0.4720    -0.0010 c3         1 HE4      -0.074400
      5 CAH         -0.5750    -0.4060     0.0130 c3         1 HE4      -0.075400
      6 CAF         -1.8720     0.3940    -0.0060 c3         1 HE4      -0.081400
      7 CAD         -3.0920    -0.5060     0.0070 c3         1 HE4       0.140400
      8 OAB         -4.2600     0.2880    -0.0140 oh         1 HE4      -0.599800
      9 HAA1         5.3860     0.3500     0.0160 hc         1 HE4       0.031367
     10 HAA2         4.5500    -0.9150     0.9130 hc         1 HE4       0.031367
     11 HAA3         4.5570    -0.9420    -0.8480 hc         1 HE4       0.031367
     12 HAC1         3.1990     1.2080     0.8690 hc         1 HE4       0.037200
     13 HAC2         3.2030     1.1790    -0.8800 hc         1 HE4       0.037200
     14 HAE1         1.9840    -1.0060    -0.8470 hc         1 HE4       0.036700
     15 HAE2         1.9790    -0.9770     0.9030 hc         1 HE4       0.036700
     16 HAG1         0.6490     1.1460     0.8630 hc         1 HE4       0.039200
     17 HAG2         0.6530     1.1150    -0.8880 hc         1 HE4       0.039200
     18 HAH1        -0.5490    -1.0810    -0.8500 hc         1 HE4       0.036700
     19 HAH2        -0.5540    -1.0480     0.9000 hc         1 HE4       0.036700
     20 HAF1        -1.9040     1.0630     0.8600 hc         1 HE4       0.052200
     21 HAF2        -1.8980     1.0300    -0.8970 hc         1 HE4       0.052200
     22 HAD1        -3.0510    -1.1800    -0.8600 h1         1 HE4       0.014700
     23 HAD2        -3.0590    -1.1440     0.9020 h1         1 HE4       0.014700
     24 HAB         -5.0210    -0.2980     0.0060 ho         1 HE4       0.403000
@<TRIPOS>BOND
     1     1     2 1   
     2     1     9 1   
     3     1    10 1   
     4     1    11 1   
     5     2     3 1   
     6     2    12 1   
     7     2    13 1   
     8     3     4 1   
     9     3    14 1   
    10     3    15 1   
    11     4     5 1   
    12     4    16 1   
    13     4    17 1   
    14     5     6 1   
    15     5    18 1   
    16     5    19 1   
    17     6     7 1   
    18     6    20 1   
    19     6    21 1   
    20     7     8 1   
    21     7    22 1   
    22     7    23 1   
    23     8    24 1   
@<TRIPOS>SUBSTRUCTURE
     1 HE4         1 TEMP              0 ****  ****    0 ROOT
