@<TRIPOS>MOLECULE
HE7
   54    57     1     0     0
SMALL
No Charge or Current Charge


@<TRIPOS>ATOM
      1 OAB         -8.0560    -1.2330    -0.4560 o          1 HE7      -0.737500
      2 CAR         -6.9450    -1.6370    -0.1510 c          1 HE7       0.718000
      3 OAC         -6.7480    -2.5530     0.6330 o          1 HE7      -0.737500
      4 CAI         -5.7250    -0.9020    -0.7260 c3         1 HE7      -0.206400
      5 CAK         -5.3170     0.2760     0.2040 c3         1 HE7      -0.108400
      6 CAV         -4.1030     1.0400    -0.3360 c          1 HE7       0.582100
      7 OAE         -4.1880     1.9340    -1.1690 o          1 HE7      -0.514000
      8 OAQ         -2.9280     0.5360     0.1700 os         1 HE7      -0.450100
      9 CAW         -1.7220     1.2050    -0.2800 c5         1 HE7       0.177300
     10 CBA         -0.4790     0.4060     0.2330 c5         1 HE7      -0.043000
     11 CAA         -0.6150    -0.0590     1.7290 c3         1 HE7      -0.073100
     12 CAM         -1.5800     2.5910     0.4470 c5         1 HE7      -0.100400
     13 CAO         -0.0430     2.7380     0.7310 c5         1 HE7      -0.068400
     14 CAZ          0.5680     1.5290    -0.0300 c5         1 HE7      -0.067700
     15 CAY          2.0130     1.0860     0.3160 c6         1 HE7      -0.045700
     16 CAX          2.4160    -0.1730    -0.5550 c6         1 HE7      -0.008400
     17 CAN          1.3570    -1.3160    -0.3710 c6         1 HE7      -0.068400
     18 CAP         -0.1040    -0.8320    -0.6330 c6         1 HE7      -0.061400
     19 CAL          3.0910     2.1960     0.0650 c6         1 HE7      -0.070400
     20 CAJ          4.5560     1.7650     0.4390 c6         1 HE7      -0.034100
     21 CAT          4.8960     0.3140     0.0560 ca         1 HE7      -0.036300
     22 CAU          3.9160    -0.6190    -0.3880 ca         1 HE7      -0.091300
     23 CAH          6.2400    -0.0910     0.1800 ca         1 HE7      -0.150000
     24 CAS          6.6280    -1.3960    -0.1440 ca         1 HE7       0.130100
     25 OAD          7.9320    -1.7680    -0.0200 oh         1 HE7      -0.540100
     26 CAF          5.6760    -2.3140    -0.6010 ca         1 HE7      -0.207000
     27 CAG          4.3310    -1.9290    -0.7280 ca         1 HE7      -0.070000
     28 HAI1        -4.8570    -1.5710    -0.7620 hc         1 HE7       0.032700
     29 HAI2        -5.9740    -0.4490    -1.6930 hc         1 HE7       0.032700
     30 HAK1        -6.1620     0.9690     0.2960 hc         1 HE7       0.072700
     31 HAK2        -5.0630    -0.1480     1.1830 hc         1 HE7       0.072700
     32 HAW         -1.7140     1.3010    -1.3760 h1         1 HE7       0.055700
     33 HAA1        -1.3450    -0.8730     1.8200 hc         1 HE7       0.036700
     34 HAA2         0.3270    -0.4340     2.1420 hc         1 HE7       0.036700
     35 HAA3        -0.9570     0.7390     2.3960 hc         1 HE7       0.036700
     36 HAM1        -1.9480     3.4050    -0.1870 hc         1 HE7       0.058700
     37 HAM2        -2.1550     2.6300     1.3790 hc         1 HE7       0.058700
     38 HAO1         0.3520     3.6930     0.3650 hc         1 HE7       0.038200
     39 HAO2         0.1770     2.6970     1.8040 hc         1 HE7       0.038200
     40 HAZ          0.6100     1.7720    -1.1010 hc         1 HE7       0.044700
     41 HAY          2.0640     0.8140     1.3780 hc         1 HE7       0.056700
     42 HAX          2.3330     0.1390    -1.6060 hc         1 HE7       0.051700
     43 HAN1         1.5520    -2.1330    -1.0750 hc         1 HE7       0.039200
     44 HAN2         1.4470    -1.7520     0.6330 hc         1 HE7       0.039200
     45 HAP1        -0.8120    -1.6530    -0.4510 hc         1 HE7       0.049200
     46 HAP2        -0.2060    -0.5790    -1.6970 hc         1 HE7       0.049200
     47 HAL1         3.0680     2.4830    -0.9950 hc         1 HE7       0.043200
     48 HAL2         2.8340     3.1050     0.6260 hc         1 HE7       0.043200
     49 HAJ1         5.2700     2.4570    -0.0280 hc         1 HE7       0.047200
     50 HAJ2         4.6900     1.8760     1.5240 hc         1 HE7       0.047200
     51 HAH          6.9880     0.6150     0.5300 ha         1 HE7       0.121000
     52 HOAD         8.0110    -2.7070    -0.2910 ho         1 HE7       0.459000
     53 HAF          5.9700    -3.3270    -0.8650 ha         1 HE7       0.109000
     54 HAG          3.6250    -2.6640    -1.1000 ha         1 HE7       0.113000
@<TRIPOS>BOND
     1     1     2 1   
     2     2     3 1   
     3     2     4 1   
     4     4     5 1   
     5     4    28 1   
     6     4    29 1   
     7     5     6 1   
     8     5    30 1   
     9     5    31 1   
    10     6     7 2   
    11     6     8 1   
    12     8     9 1   
    13     9    10 1   
    14     9    12 1   
    15     9    32 1   
    16    10    11 1   
    17    10    14 1   
    18    10    18 1   
    19    11    33 1   
    20    11    34 1   
    21    11    35 1   
    22    12    13 1   
    23    12    36 1   
    24    12    37 1   
    25    13    14 1   
    26    13    38 1   
    27    13    39 1   
    28    14    15 1   
    29    14    40 1   
    30    15    16 1   
    31    15    19 1   
    32    15    41 1   
    33    16    17 1   
    34    16    22 1   
    35    16    42 1   
    36    17    18 1   
    37    17    43 1   
    38    17    44 1   
    39    18    45 1   
    40    18    46 1   
    41    19    20 1   
    42    19    47 1   
    43    19    48 1   
    44    20    21 1   
    45    20    49 1   
    46    20    50 1   
    47    21    22 ar  
    48    21    23 ar  
    49    22    27 ar  
    50    23    24 ar  
    51    23    51 1   
    52    24    25 1   
    53    24    26 ar  
    54    25    52 1   
    55    26    27 ar  
    56    26    53 1   
    57    27    54 1   
@<TRIPOS>SUBSTRUCTURE
     1 HE7         1 TEMP              0 ****  ****    0 ROOT
