@<TRIPOS>MOLECULE
HE7
   54    57     1     0     0
SMALL
abcg2


@<TRIPOS>ATOM
      1 OAB         -7.4880    -1.2220     1.2520 o          1 HE7      -0.737500
      2 CAR         -7.4750    -1.1430     0.0070 c          1 HE7       0.718000
      3 OAC         -8.3470    -1.5770    -0.7730 o          1 HE7      -0.737500
      4 CAI         -6.2910    -0.4100    -0.6490 c3         1 HE7      -0.206400
      5 CAK         -5.0770    -0.2490     0.2480 c3         1 HE7      -0.108400
      6 CAV         -3.9700     0.5470    -0.3900 c          1 HE7       0.582100
      7 OAE         -4.1180     1.3500    -1.2790 o          1 HE7      -0.514000
      8 OAQ         -2.7910     0.2780     0.1590 os         1 HE7      -0.450100
      9 CAW         -1.6380     0.9740    -0.3160 c5         1 HE7       0.177300
     10 CBA         -0.3570     0.2980     0.1750 c5         1 HE7      -0.043000
     11 CAA         -0.4450     0.0250     1.6800 c3         1 HE7      -0.073100
     12 CAM         -1.5320     2.4290     0.1820 c5         1 HE7      -0.100400
     13 CAO         -0.0200     2.6780     0.3930 c5         1 HE7      -0.068400
     14 CAZ          0.6360     1.4180    -0.1720 c5         1 HE7      -0.067700
     15 CAY          2.0630     1.0750     0.2090 c6         1 HE7      -0.045700
     16 CAX          2.4740    -0.1970    -0.5500 c6         1 HE7      -0.008400
     17 CAN          1.4990    -1.3530    -0.2890 c6         1 HE7      -0.068400
     18 CAP          0.0440    -0.9670    -0.5770 c6         1 HE7      -0.061400
     19 CAL          3.0650     2.1800    -0.0880 c6         1 HE7      -0.070400
     20 CAJ          4.4180     1.8120     0.5000 c6         1 HE7      -0.034100
     21 CAT          4.8430     0.4040     0.1650 ca         1 HE7      -0.036300
     22 CAU          3.9280    -0.5520    -0.2990 ca         1 HE7      -0.091300
     23 CAH          6.1800     0.0630     0.3430 ca         1 HE7      -0.150000
     24 CAS          6.6430    -1.2150     0.0640 ca         1 HE7       0.130100
     25 OAD          7.9570    -1.4720     0.2580 oh         1 HE7      -0.540100
     26 CAF          5.7470    -2.1690    -0.4030 ca         1 HE7      -0.207000
     27 CAG          4.4160    -1.8270    -0.5770 ca         1 HE7      -0.070000
     28 HAI1        -6.0140    -0.9310    -1.5680 hc         1 HE7       0.032700
     29 HAI2        -6.6470     0.5750    -0.9690 hc         1 HE7       0.032700
     30 HAK1        -5.3580     0.2680     1.1710 hc         1 HE7       0.072700
     31 HAK2        -4.6870    -1.2180     0.5640 hc         1 HE7       0.072700
     32 HAW         -1.6420     0.9540    -1.4110 h1         1 HE7       0.055700
     33 HAA1        -1.1840    -0.7500     1.8830 hc         1 HE7       0.036700
     34 HAA2         0.5020    -0.3240     2.0910 hc         1 HE7       0.036700
     35 HAA3        -0.7330     0.9080     2.2520 hc         1 HE7       0.036700
     36 HAM1        -1.9640     3.1190    -0.5420 hc         1 HE7       0.058700
     37 HAM2        -2.0930     2.5530     1.1100 hc         1 HE7       0.058700
     38 HAO1         0.3200     3.5830    -0.1110 hc         1 HE7       0.038200
     39 HAO2         0.2160     2.7970     1.4530 hc         1 HE7       0.038200
     40 HAZ          0.6180     1.5150    -1.2700 hc         1 HE7       0.044700
     41 HAY          2.1110     0.8760     1.2890 hc         1 HE7       0.056700
     42 HAX          2.3860     0.0490    -1.6190 hc         1 HE7       0.051700
     43 HAN1         1.7510    -2.2040    -0.9240 hc         1 HE7       0.039200
     44 HAN2         1.6130    -1.7010     0.7410 hc         1 HE7       0.039200
     45 HAP1        -0.6160    -1.8010    -0.3230 hc         1 HE7       0.049200
     46 HAP2        -0.0690    -0.7930    -1.6530 hc         1 HE7       0.049200
     47 HAL1         3.1590     2.3190    -1.1690 hc         1 HE7       0.043200
     48 HAL2         2.7340     3.1340     0.3280 hc         1 HE7       0.043200
     49 HAJ1         5.1870     2.5130     0.1650 hc         1 HE7       0.047200
     50 HAJ2         4.3750     1.9140     1.5890 hc         1 HE7       0.047200
     51 HAH          6.8800     0.8110     0.6990 ha         1 HE7       0.121000
     52 HOAD         8.1590    -2.3750     0.0020 ho         1 HE7       0.459000
     53 HAF          6.0750    -3.1760    -0.6370 ha         1 HE7       0.109000
     54 HAG          3.7480    -2.5930    -0.9480 ha         1 HE7       0.113000
@<TRIPOS>BOND
     1     1     2 1   
     2     2     3 1   
     3     2     4 1   
     4     4     5 1   
     5     4    28 1   
     6     4    29 1   
     7     5     6 1   
     8     5    30 1   
     9     5    31 1   
    10     6     7 2   
    11     6     8 1   
    12     8     9 1   
    13     9    10 1   
    14     9    12 1   
    15     9    32 1   
    16    10    11 1   
    17    10    14 1   
    18    10    18 1   
    19    11    33 1   
    20    11    34 1   
    21    11    35 1   
    22    12    13 1   
    23    12    36 1   
    24    12    37 1   
    25    13    14 1   
    26    13    38 1   
    27    13    39 1   
    28    14    15 1   
    29    14    40 1   
    30    15    16 1   
    31    15    19 1   
    32    15    41 1   
    33    16    17 1   
    34    16    22 1   
    35    16    42 1   
    36    17    18 1   
    37    17    43 1   
    38    17    44 1   
    39    18    45 1   
    40    18    46 1   
    41    19    20 1   
    42    19    47 1   
    43    19    48 1   
    44    20    21 1   
    45    20    49 1   
    46    20    50 1   
    47    21    22 ar  
    48    21    23 ar  
    49    22    27 ar  
    50    23    24 ar  
    51    23    51 1   
    52    24    25 1   
    53    24    26 ar  
    54    25    52 1   
    55    26    27 ar  
    56    26    53 1   
    57    27    54 1   
@<TRIPOS>SUBSTRUCTURE
     1 HE7         1 TEMP              0 ****  ****    0 ROOT
