@<TRIPOS>MOLECULE
HEE
   30    29     1     0     0
SMALL
No Charge or Current Charge


@<TRIPOS>ATOM
      1 C1           0.3230    -0.0310    -0.0910 c3         1 HEE      -0.425400
      2 C2          -0.4140     0.0820     1.2640 c3         1 HEE      -0.043400
      3 C3           0.5310    -0.0700     2.4760 c3         1 HEE      -0.072400
      4 C4          -0.2000     0.0420     3.8320 c3         1 HEE      -0.077400
      5 C5           0.7450    -0.1100     5.0430 c3         1 HEE      -0.076400
      6 C6           0.0170     0.0020     6.3960 c3         1 HEE      -0.087100
      7 P           -0.7550     0.1420    -1.5710 p5         1 HEE       1.401400
      8 O1P         -1.3690     1.5040    -1.6030 o          1 HEE      -0.832500
      9 O2P          0.3770    -0.0340    -2.7040 os         1 HEE      -0.611400
     10 O3P         -1.7590    -0.9640    -1.6090 o          1 HEE      -0.832500
     11 C7          -0.0210     0.0320    -4.0740 c3         1 HEE       0.221600
     12 C8           1.2380    -0.1630    -4.9360 c3         1 HEE      -0.090100
     13 H11          1.0930     0.7430    -0.1670 hc         1 HEE       0.043700
     14 H12          0.8170    -1.0050    -0.1710 hc         1 HEE       0.043700
     15 H21         -1.1950    -0.6870     1.3180 hc         1 HEE       0.042700
     16 H22         -0.9200     1.0550     1.3220 hc         1 HEE       0.042700
     17 H31          1.3110     0.7000     2.4230 hc         1 HEE       0.026200
     18 H32          1.0350    -1.0430     2.4190 hc         1 HEE       0.026200
     19 H41         -0.9800    -0.7280     3.8860 hc         1 HEE       0.035200
     20 H42         -0.7050     1.0150     3.8900 hc         1 HEE       0.035200
     21 H51          1.5260     0.6590     4.9950 hc         1 HEE       0.031200
     22 H52          1.2510    -1.0830     4.9910 hc         1 HEE       0.031200
     23 H61          0.7270    -0.1130     7.2240 hc         1 HEE       0.024033
     24 H62         -0.4700     0.9790     6.4950 hc         1 HEE       0.024033
     25 H63         -0.7480    -0.7780     6.4910 hc         1 HEE       0.024033
     26 H1'1        -0.7490    -0.7550    -4.3100 h1         1 HEE       0.018200
     27 H1'2        -0.4720     1.0060    -4.3060 h1         1 HEE       0.018200
     28 H2'1         0.9790    -0.1200    -6.0000 hc         1 HEE       0.020033
     29 H2'2         1.9750     0.6230    -4.7300 hc         1 HEE       0.020033
     30 H2'3         1.6980    -1.1380    -4.7340 hc         1 HEE       0.020033
@<TRIPOS>BOND
     1     1     2 1   
     2     1     7 1   
     3     1    13 1   
     4     1    14 1   
     5     2     3 1   
     6     2    15 1   
     7     2    16 1   
     8     3     4 1   
     9     3    17 1   
    10     3    18 1   
    11     4     5 1   
    12     4    19 1   
    13     4    20 1   
    14     5     6 1   
    15     5    21 1   
    16     5    22 1   
    17     6    23 1   
    18     6    24 1   
    19     6    25 1   
    20     7     8 1   
    21     7     9 1   
    22     7    10 1   
    23     9    11 1   
    24    11    12 1   
    25    11    26 1   
    26    11    27 1   
    27    12    28 1   
    28    12    29 1   
    29    12    30 1   
@<TRIPOS>SUBSTRUCTURE
     1 HEE         1 TEMP              0 ****  ****    0 ROOT
