@<TRIPOS>MOLECULE
HEE
   30    29     1     0     0
SMALL
bcc


@<TRIPOS>ATOM
      1 C1           0.4130    -0.0960    -0.0590 c3         1 HEE      -0.267600
      2 C2          -0.3400     0.0320     1.2640 c3         1 HEE      -0.043400
      3 C3           0.5640    -0.1040     2.4820 c3         1 HEE      -0.072400
      4 C4          -0.1900     0.0210     3.8000 c3         1 HEE      -0.077400
      5 C5           0.7110    -0.0820     5.0250 c3         1 HEE      -0.076400
      6 C6          -0.0560     0.0500     6.3340 c3         1 HEE      -0.087100
      7 P           -0.7050     0.1300    -1.4830 p5         1 HEE       1.243600
      8 O1P         -1.2200     1.5480    -1.5180 o          1 HEE      -0.832500
      9 O2P          0.4170    -0.0660    -2.6910 os         1 HEE      -0.588200
     10 O3P         -1.7020    -1.0000    -1.5500 o          1 HEE      -0.832500
     11 C7          -0.0290     0.0540    -4.0310 c3         1 HEE       0.198400
     12 C8           1.1470    -0.1260    -4.9670 c3         1 HEE      -0.090100
     13 H11          1.2130     0.6500    -0.1010 hc         1 HEE       0.043700
     14 H12          0.8940    -1.0770    -0.1160 hc         1 HEE       0.043700
     15 H21         -1.1260    -0.7280     1.3080 hc         1 HEE       0.042700
     16 H22         -0.8500     1.0000     1.2980 hc         1 HEE       0.042700
     17 H31          1.3490     0.6600     2.4380 hc         1 HEE       0.026200
     18 H32          1.0810    -1.0700     2.4480 hc         1 HEE       0.026200
     19 H41         -0.9620    -0.7540     3.8520 hc         1 HEE       0.035200
     20 H42         -0.7220     0.9800     3.8240 hc         1 HEE       0.035200
     21 H51          1.4810     0.6940     4.9730 hc         1 HEE       0.031200
     22 H52          1.2430    -1.0380     5.0050 hc         1 HEE       0.031200
     23 H61          0.6060    -0.0180     7.1980 hc         1 HEE       0.024033
     24 H62         -0.5750     1.0090     6.3890 hc         1 HEE       0.024033
     25 H63         -0.8080    -0.7360     6.4310 hc         1 HEE       0.024033
     26 H1'1        -0.7970    -0.6960    -4.2510 h1         1 HEE       0.018200
     27 H1'2        -0.4840     1.0360    -4.1990 h1         1 HEE       0.018200
     28 H2'1         0.8130    -0.0370    -6.0010 hc         1 HEE       0.020033
     29 H2'2         1.9110     0.6330    -4.7950 hc         1 HEE       0.020033
     30 H2'3         1.6060    -1.1090    -4.8480 hc         1 HEE       0.020033
@<TRIPOS>BOND
     1     1     2 1   
     2     1     7 1   
     3     1    13 1   
     4     1    14 1   
     5     2     3 1   
     6     2    15 1   
     7     2    16 1   
     8     3     4 1   
     9     3    17 1   
    10     3    18 1   
    11     4     5 1   
    12     4    19 1   
    13     4    20 1   
    14     5     6 1   
    15     5    21 1   
    16     5    22 1   
    17     6    23 1   
    18     6    24 1   
    19     6    25 1   
    20     7     8 1   
    21     7     9 1   
    22     7    10 1   
    23     9    11 1   
    24    11    12 1   
    25    11    26 1   
    26    11    27 1   
    27    12    28 1   
    28    12    29 1   
    29    12    30 1   
@<TRIPOS>SUBSTRUCTURE
     1 HEE         1 TEMP              0 ****  ****    0 ROOT
