@<TRIPOS>MOLECULE
HEF
   37    38     1     0     0
SMALL
bcc


@<TRIPOS>ATOM
      1 N1           0.1580    -0.8140    -0.6260 n          1 HEF      -0.408000
      2 C2           0.8980    -1.6730    -1.4170 c          1 HEF       0.823500
      3 O2           0.4700    -2.7220    -1.8500 o          1 HEF      -0.639500
      4 N3           2.1660    -1.2500    -1.7010 ns         1 HEF      -0.597500
      5 C4           2.7740    -0.0810    -1.3040 c          1 HEF       0.722700
      6 O4           3.8990     0.1870    -1.6780 o          1 HEF      -0.597500
      7 C5           1.9790     0.7490    -0.4060 cc         1 HEF      -0.206400
      8 C6           0.7160     0.3540    -0.1250 cd         1 HEF       0.176200
      9 CM5          2.6260     1.9850     0.1360 c3         1 HEF      -0.034900
     10 CM          -1.2840    -1.0750    -0.5180 c3         1 HEF       0.295800
     11 OM          -2.0410    -0.1960    -1.2690 os         1 HEF      -0.386600
     12 CE1         -1.9570    -0.3790    -2.6700 c3         1 HEF       0.125400
     13 CE2         -3.0180     0.4490    -3.3480 c3         1 HEF       0.140400
     14 OE          -2.7560     1.8160    -3.1360 oh         1 HEF      -0.583800
     15 S           -0.2920     1.3900     0.8900 ss         1 HEF      -0.167500
     16 C1          -0.5130     0.3780     2.3310 ca         1 HEF      -0.008100
     17 C7          -1.7220     0.4940     3.0110 ca         1 HEF      -0.106000
     18 C3          -1.9240    -0.2280     4.1790 ca         1 HEF      -0.124500
     19 C8          -0.9340    -1.0770     4.6570 ca         1 HEF      -0.116000
     20 C9           0.2660    -1.1920     3.9680 ca         1 HEF      -0.124500
     21 C10          0.4890    -0.4570     2.8130 ca         1 HEF      -0.106000
     22 HN3          2.7040    -1.8630    -2.3020 hn         1 HEF       0.344500
     23 HM51         3.7080     1.8770     0.1400 hc         1 HEF       0.057700
     24 HM52         2.3910     2.8560    -0.4780 hc         1 HEF       0.057700
     25 HM53         2.2970     2.1990     1.1500 hc         1 HEF       0.057700
     26 HM1         -1.4330    -2.1130    -0.8160 h2         1 HEF       0.085200
     27 HM2         -1.5920    -0.9750     0.5200 h2         1 HEF       0.085200
     28 HE11        -0.9690    -0.0890    -3.0480 h1         1 HEF       0.041700
     29 HE12        -2.1160    -1.4310    -2.9340 h1         1 HEF       0.041700
     30 HE21        -2.9990     0.1870    -4.4130 h1         1 HEF       0.026200
     31 HE22        -4.0050     0.1560    -2.9660 h1         1 HEF       0.026200
     32 HOE         -3.4360     2.3220    -3.5910 ho         1 HEF       0.403000
     33 H2          -2.5060     1.1350     2.6290 ha         1 HEF       0.144500
     34 H3          -2.8640    -0.1360     4.7060 ha         1 HEF       0.136000
     35 H4          -1.0980    -1.6470     5.5610 ha         1 HEF       0.135000
     36 H5           1.0430    -1.8490     4.3370 ha         1 HEF       0.136000
     37 H6           1.4380    -0.5380     2.2970 ha         1 HEF       0.144500
@<TRIPOS>BOND
     1     1     2 1   
     2     1     8 1   
     3     1    10 1   
     4     2     3 2   
     5     2     4 1   
     6     4     5 1   
     7     4    22 1   
     8     5     6 2   
     9     5     7 1   
    10     7     8 2   
    11     7     9 1   
    12     8    15 1   
    13     9    23 1   
    14     9    24 1   
    15     9    25 1   
    16    10    11 1   
    17    10    26 1   
    18    10    27 1   
    19    11    12 1   
    20    12    13 1   
    21    12    28 1   
    22    12    29 1   
    23    13    14 1   
    24    13    30 1   
    25    13    31 1   
    26    14    32 1   
    27    15    16 1   
    28    16    17 ar  
    29    16    21 ar  
    30    17    18 ar  
    31    17    33 1   
    32    18    19 ar  
    33    18    34 1   
    34    19    20 ar  
    35    19    35 1   
    36    20    21 ar  
    37    20    36 1   
    38    21    37 1   
@<TRIPOS>SUBSTRUCTURE
     1 HEF         1 TEMP              0 ****  ****    0 ROOT
