@<TRIPOS>MOLECULE
HEF
   37    38     1     0     0
SMALL
No Charge or Current Charge


@<TRIPOS>ATOM
      1 N1          -0.0480    -0.7930    -0.6250 n          1 HEF      -0.341000
      2 C2           0.7450    -1.7210    -1.3160 c          1 HEF       0.614000
      3 O2           0.3150    -2.7640    -1.7780 o          1 HEF      -0.564000
      4 N3           2.0550    -1.3930    -1.4690 ns         1 HEF      -0.463500
      5 C4           2.7130    -0.2800    -1.0430 c          1 HEF       0.580200
      6 O4           3.8990    -0.1340    -1.2900 o          1 HEF      -0.522000
      7 C5           1.8750     0.6810    -0.2890 cc         1 HEF      -0.206400
      8 C6           0.5420     0.3630    -0.1140 cd         1 HEF       0.176200
      9 CM5          2.5650     1.9440     0.2040 c3         1 HEF      -0.034900
     10 CM          -1.4980    -1.0730    -0.4990 c3         1 HEF       0.319000
     11 OM          -2.2500    -0.1830    -1.3470 os         1 HEF      -0.433000
     12 CE1         -2.0890    -0.3970    -2.7660 c3         1 HEF       0.148600
     13 CE2         -2.9950     0.6000    -3.5350 c3         1 HEF       0.163600
     14 OE          -2.5330     1.9570    -3.3900 oh         1 HEF      -0.706000
     15 S           -0.4760     1.5000     0.8080 ss         1 HEF      -0.040600
     16 C1          -0.4870     0.4700     2.2840 ca         1 HEF      -0.135000
     17 C7          -1.7180     0.2140     2.9170 ca         1 HEF      -0.088000
     18 C3          -1.7710    -0.5840     4.0720 ca         1 HEF      -0.106500
     19 C8          -0.5900    -1.1230     4.6090 ca         1 HEF      -0.098000
     20 C9           0.6440    -0.8590     3.9920 ca         1 HEF      -0.106500
     21 C10          0.6990    -0.0610     2.8360 ca         1 HEF      -0.088000
     22 HN3          2.6120    -2.0620    -1.9760 hn         1 HEF       0.344500
     23 HM51         3.6520     1.8240     0.2880 hc         1 HEF       0.057700
     24 HM52         2.3760     2.7790    -0.4810 hc         1 HEF       0.057700
     25 HM53         2.2120     2.2410     1.1980 hc         1 HEF       0.057700
     26 HM1         -1.6970    -2.1210    -0.7510 h2         1 HEF       0.085200
     27 HM2         -1.7770    -0.9400     0.5510 h2         1 HEF       0.085200
     28 HE11        -1.0460    -0.2480    -3.0760 h1         1 HEF       0.041700
     29 HE12        -2.3820    -1.4200    -3.0340 h1         1 HEF       0.041700
     30 HE21        -2.9970     0.3180    -4.5970 h1         1 HEF       0.026200
     31 HE22        -4.0250     0.5020    -3.1670 h1         1 HEF       0.026200
     32 HOE         -3.1910     2.5330    -3.8450 ho         1 HEF       0.502000
     33 H2          -2.6370     0.6300     2.5080 ha         1 HEF       0.126500
     34 H3          -2.7270    -0.7830     4.5530 ha         1 HEF       0.118000
     35 H4          -0.6300    -1.7400     5.5040 ha         1 HEF       0.117000
     36 H5           1.5600    -1.2690     4.4120 ha         1 HEF       0.118000
     37 H6           1.6650     0.1410     2.3820 ha         1 HEF       0.126500
@<TRIPOS>BOND
     1     1     2 1   
     2     1     8 1   
     3     1    10 1   
     4     2     3 2   
     5     2     4 1   
     6     4     5 1   
     7     4    22 1   
     8     5     6 2   
     9     5     7 1   
    10     7     8 2   
    11     7     9 1   
    12     8    15 1   
    13     9    23 1   
    14     9    24 1   
    15     9    25 1   
    16    10    11 1   
    17    10    26 1   
    18    10    27 1   
    19    11    12 1   
    20    12    13 1   
    21    12    28 1   
    22    12    29 1   
    23    13    14 1   
    24    13    30 1   
    25    13    31 1   
    26    14    32 1   
    27    15    16 1   
    28    16    17 ar  
    29    16    21 ar  
    30    17    18 ar  
    31    17    33 1   
    32    18    19 ar  
    33    18    34 1   
    34    19    20 ar  
    35    19    35 1   
    36    20    21 ar  
    37    20    36 1   
    38    21    37 1   
@<TRIPOS>SUBSTRUCTURE
     1 HEF         1 TEMP              0 ****  ****    0 ROOT
