@<TRIPOS>MOLECULE
HEI
   58    60     1     0     0
SMALL
No Charge or Current Charge


@<TRIPOS>ATOM
      1 C01          5.6240     2.7730    16.0940 c3         1 HEI      -0.089100
      2 C02          7.0340     3.0910    16.6280 c3         1 HEI      -0.128700
      3 C03          7.7690     4.1110    15.7610 ca         1 HEI       0.190300
      4 C05          8.1980     6.3060    15.2890 ca         1 HEI       0.399900
      5 C08          9.2280     4.7830    13.9680 ca         1 HEI       0.389900
      6 C10          8.6110     3.7340    14.6890 ca         1 HEI      -0.117900
      7 C12          8.2610     1.8430    13.1860 c3         1 HEI       0.147600
      8 C13          8.5330     0.3240    13.1910 c3         1 HEI      -0.073400
      9 C14          7.8760    -0.4240    14.3690 c3         1 HEI       0.166600
     10 C16          5.5630    -0.7220    15.2130 ca         1 HEI       0.128100
     11 C17          6.0090    -1.4980    16.3100 ca         1 HEI      -0.197000
     12 C18          5.0980    -1.9390    17.2830 ca         1 HEI      -0.113000
     13 C19          3.7400    -1.6120    17.1740 ca         1 HEI      -0.134000
     14 C20          3.2860    -0.8430    16.0900 ca         1 HEI      -0.141000
     15 C21          4.1800    -0.3890    15.0970 ca         1 HEI       0.263000
     16 C23          2.6320     1.4260    14.2230 c6         1 HEI       0.189300
     17 C24          2.8190     2.6220    13.2530 c6         1 HEI      -0.055400
     18 C25          2.8990     2.1540    11.7710 c6         1 HEI      -0.190700
     19 C26          4.0090     1.0750    11.6270 c6         1 HEI      -0.055400
     20 C27          3.7900    -0.0970    12.6180 c6         1 HEI       0.189300
     21 C28          3.0890     3.3330    10.7880 c          1 HEI       0.723000
     22 N04          7.5620     5.4120    16.0570 nb         1 HEI      -0.276000
     23 N06          7.9920     7.6080    15.5930 nv         1 HEI      -1.047900
     24 N07          9.0250     6.0710    14.2650 nb         1 HEI      -0.328000
     25 N09         10.1070     4.5670    12.9510 nv         1 HEI      -1.060900
     26 N22          3.6850     0.3960    14.0170 nh         1 HEI      -0.769400
     27 O11          8.8220     2.4000    14.3890 os         1 HEI      -0.364100
     28 O15          6.4550    -0.2540    14.2580 os         1 HEI      -0.326100
     29 O29          4.1010     4.0130    10.8770 o          1 HEI      -0.735500
     30 O30          2.2130     3.5320     9.9580 o          1 HEI      -0.735500
     31 H012         5.1340     2.0220    16.7250 hc         1 HEI       0.048033
     32 H011         4.9990     3.6740    16.0840 hc         1 HEI       0.048033
     33 H013         5.6780     2.3810    15.0730 hc         1 HEI       0.048033
     34 H021         6.9490     3.4610    17.6570 hc         1 HEI       0.052200
     35 H022         7.6080     2.1590    16.6900 hc         1 HEI       0.052200
     36 H121         7.1790     2.0240    13.1420 h1         1 HEI       0.054700
     37 H122         8.7160     2.2910    12.2940 h1         1 HEI       0.054700
     38 H132         8.1720    -0.1060    12.2490 hc         1 HEI       0.054200
     39 H131         9.6160     0.1530    13.2190 hc         1 HEI       0.054200
     40 H142         8.1430    -1.4880    14.3200 h1         1 HEI       0.029700
     41 H141         8.2450    -0.0150    15.3180 h1         1 HEI       0.029700
     42 H171         7.0550    -1.7660    16.4250 ha         1 HEI       0.106000
     43 H181         5.4470    -2.5350    18.1240 ha         1 HEI       0.098000
     44 H191         3.0360    -1.9560    17.9290 ha         1 HEI       0.101000
     45 H201         2.2280    -0.6050    16.0170 ha         1 HEI       0.116000
     46 H232         1.6390     0.9790    14.0650 h1         1 HEI       0.016200
     47 H231         2.6660     1.8020    15.2560 h1         1 HEI       0.016200
     48 H242         1.9900     3.3310    13.3800 hc         1 HEI       0.049450
     49 H241         3.7360     3.1640    13.5230 hc         1 HEI       0.049450
     50 H251         1.9390     1.6790    11.5230 hc         1 HEI       0.020700
     51 H261         4.9950     1.5210    11.8110 hc         1 HEI       0.049450
     52 H262         4.0270     0.6880    10.5990 hc         1 HEI       0.049450
     53 H272         2.8690    -0.6340    12.3470 h1         1 HEI       0.016200
     54 H271         4.6200    -0.8100    12.5170 h1         1 HEI       0.016200
     55 H062         7.5570     7.8340    16.4830 hn         1 HEI       0.478000
     56 H061         8.6110     8.3060    15.1880 hn         1 HEI       0.478000
     57 H092        10.6850     5.3470    12.6500 hn         1 HEI       0.482000
     58 H091        10.5150     3.6400    12.8710 hn         1 HEI       0.482000
@<TRIPOS>BOND
     1     1     2 1   
     2     1    31 1   
     3     1    32 1   
     4     1    33 1   
     5     2     3 1   
     6     2    34 1   
     7     2    35 1   
     8     3     6 ar  
     9     3    22 ar  
    10     4    22 ar  
    11     4    23 1   
    12     4    24 ar  
    13     5     6 ar  
    14     5    24 ar  
    15     5    25 1   
    16     6    27 1   
    17     7     8 1   
    18     7    27 1   
    19     7    36 1   
    20     7    37 1   
    21     8     9 1   
    22     8    38 1   
    23     8    39 1   
    24     9    28 1   
    25     9    40 1   
    26     9    41 1   
    27    10    11 ar  
    28    10    15 ar  
    29    10    28 1   
    30    11    12 ar  
    31    11    42 1   
    32    12    13 ar  
    33    12    43 1   
    34    13    14 ar  
    35    13    44 1   
    36    14    15 ar  
    37    14    45 1   
    38    15    26 1   
    39    16    17 1   
    40    16    26 1   
    41    16    46 1   
    42    16    47 1   
    43    17    18 1   
    44    17    48 1   
    45    17    49 1   
    46    18    19 1   
    47    18    21 1   
    48    18    50 1   
    49    19    20 1   
    50    19    51 1   
    51    19    52 1   
    52    20    26 1   
    53    20    53 1   
    54    20    54 1   
    55    21    29 1   
    56    21    30 1   
    57    23    55 1   
    58    23    56 1   
    59    25    57 1   
    60    25    58 1   
@<TRIPOS>SUBSTRUCTURE
     1 HEI         1 TEMP              0 ****  ****    0 ROOT
