@<TRIPOS>MOLECULE
HEI
   58    60     1     0     0
SMALL
bcc


@<TRIPOS>ATOM
      1 C01          5.5310     3.1470    16.0300 c3         1 HEI      -0.089100
      2 C02          6.9940     3.0590    16.4600 c3         1 HEI      -0.128700
      3 C03          7.8590     4.0450    15.7320 ca         1 HEI       0.518600
      4 C05          8.4310     6.2220    15.4120 ca         1 HEI       0.925900
      5 C08          9.5730     4.6780    14.2040 ca         1 HEI       0.718200
      6 C10          8.7920     3.6580    14.7930 ca         1 HEI      -0.248500
      7 C12          8.2990     1.9280    13.2820 c3         1 HEI       0.124400
      8 C13          8.4550     0.4280    13.1410 c3         1 HEI      -0.073400
      9 C14          7.8140    -0.3710    14.2570 c3         1 HEI       0.143400
     10 C16          5.6170    -0.6110    15.1730 ca         1 HEI       0.128100
     11 C17          6.0540    -1.4170    16.2150 ca         1 HEI      -0.215000
     12 C18          5.1590    -1.8500    17.1910 ca         1 HEI      -0.131000
     13 C19          3.8280    -1.4830    17.1220 ca         1 HEI      -0.152000
     14 C20          3.3840    -0.6980    16.0600 ca         1 HEI      -0.159000
     15 C21          4.2530    -0.2530    15.0700 ca         1 HEI       0.124600
     16 C23          2.6710     1.3860    14.2180 c6         1 HEI       0.189300
     17 C24          2.6060     2.4960    13.1790 c6         1 HEI      -0.055400
     18 C25          2.6270     1.9400    11.7600 c6         1 HEI      -0.190700
     19 C26          3.8260     1.0100    11.6000 c6         1 HEI      -0.055400
     20 C27          3.8520    -0.0480    12.6900 c6         1 HEI       0.189300
     21 C28          2.5610     3.0210    10.6570 c          1 HEI       0.933600
     22 N04          7.6770     5.3340    16.0470 nb         1 HEI      -0.802000
     23 N06          8.2010     7.5360    15.6730 nv         1 HEI      -0.937500
     24 N07          9.3830     5.9530    14.5160 nb         1 HEI      -0.854000
     25 N09         10.5200     4.3850    13.2880 nv         1 HEI      -0.950500
     26 N22          3.8520     0.5720    14.0100 nh         1 HEI      -0.631000
     27 O11          9.0020     2.3530    14.4510 os         1 HEI      -0.340900
     28 O15          6.4240    -0.1110    14.2180 os         1 HEI      -0.302900
     29 O29          2.1970     4.1650    10.9930 o          1 HEI      -0.840800
     30 O30          2.8570     2.6500     9.5020 o          1 HEI      -0.840800
     31 H012         4.9190     2.4630    16.6180 hc         1 HEI       0.048033
     32 H011         5.1430     4.1560    16.1730 hc         1 HEI       0.048033
     33 H013         5.4060     2.8790    14.9810 hc         1 HEI       0.048033
     34 H021         7.0680     3.2770    17.5280 hc         1 HEI       0.052200
     35 H022         7.3620     2.0430    16.3190 hc         1 HEI       0.052200
     36 H121         7.2430     2.2080    13.3570 h1         1 HEI       0.054700
     37 H122         8.7040     2.4250    12.3950 h1         1 HEI       0.054700
     38 H132         8.0240     0.1300    12.1820 hc         1 HEI       0.054200
     39 H131         9.5160     0.1700    13.0960 hc         1 HEI       0.054200
     40 H142         8.0090    -1.4400    14.1130 h1         1 HEI       0.029700
     41 H141         8.2360    -0.0890    15.2270 h1         1 HEI       0.029700
     42 H171         7.0950    -1.7020    16.2940 ha         1 HEI       0.124000
     43 H181         5.5180    -2.4680    18.0030 ha         1 HEI       0.116000
     44 H191         3.1270    -1.8090    17.8780 ha         1 HEI       0.119000
     45 H201         2.3370    -0.4300    16.0070 ha         1 HEI       0.134000
     46 H232         1.7440     0.7890    14.1660 h1         1 HEI       0.016200
     47 H231         2.7140     1.8190    15.2200 h1         1 HEI       0.016200
     48 H242         1.7020     3.0840    13.3490 hc         1 HEI       0.049450
     49 H241         3.4560     3.1680    13.3290 hc         1 HEI       0.049450
     50 H251         1.7260     1.3170    11.6420 hc         1 HEI       0.020700
     51 H261         4.7570     1.5860    11.6440 hc         1 HEI       0.049450
     52 H262         3.8010     0.5180    10.6270 hc         1 HEI       0.049450
     53 H272         2.9730    -0.7050    12.5790 h1         1 HEI       0.016200
     54 H271         4.7320    -0.6780    12.5790 h1         1 HEI       0.016200
     55 H062         7.6890     7.7550    16.5110 hn         1 HEI       0.422800
     56 H061         8.9220     8.1910    15.4230 hn         1 HEI       0.422800
     57 H092        11.1720     5.1130    13.0480 hn         1 HEI       0.426800
     58 H091        10.8720     3.4440    13.2310 hn         1 HEI       0.426800
@<TRIPOS>BOND
     1     1     2 1   
     2     1    31 1   
     3     1    32 1   
     4     1    33 1   
     5     2     3 1   
     6     2    34 1   
     7     2    35 1   
     8     3     6 ar  
     9     3    22 ar  
    10     4    22 ar  
    11     4    23 1   
    12     4    24 ar  
    13     5     6 ar  
    14     5    24 ar  
    15     5    25 1   
    16     6    27 1   
    17     7     8 1   
    18     7    27 1   
    19     7    36 1   
    20     7    37 1   
    21     8     9 1   
    22     8    38 1   
    23     8    39 1   
    24     9    28 1   
    25     9    40 1   
    26     9    41 1   
    27    10    11 ar  
    28    10    15 ar  
    29    10    28 1   
    30    11    12 ar  
    31    11    42 1   
    32    12    13 ar  
    33    12    43 1   
    34    13    14 ar  
    35    13    44 1   
    36    14    15 ar  
    37    14    45 1   
    38    15    26 1   
    39    16    17 1   
    40    16    26 1   
    41    16    46 1   
    42    16    47 1   
    43    17    18 1   
    44    17    48 1   
    45    17    49 1   
    46    18    19 1   
    47    18    21 1   
    48    18    50 1   
    49    19    20 1   
    50    19    51 1   
    51    19    52 1   
    52    20    26 1   
    53    20    53 1   
    54    20    54 1   
    55    21    29 1   
    56    21    30 1   
    57    23    55 1   
    58    23    56 1   
    59    25    57 1   
    60    25    58 1   
@<TRIPOS>SUBSTRUCTURE
     1 HEI         1 TEMP              0 ****  ****    0 ROOT
