@<TRIPOS>MOLECULE
HEK
   74    76     1     0     0
SMALL
bcc


@<TRIPOS>ATOM
      1 C2          -7.1470     0.5730     1.0420 c3         1 HEK       0.035000
      2 N2          -5.9000    -0.3040    -2.8820 na         1 HEK       0.087400
      3 C3          -7.1900     1.0570    -0.3950 c          1 HEK       0.655100
      4 C5          -7.2490    -0.3500    -3.3850 c3         1 HEK       0.040300
      5 O6          -2.3620    -2.4760     3.7730 o          1 HEK      -0.818300
      6 C4          -8.1430     0.6300    -2.5950 c3         1 HEK      -0.037300
      7 C10         -2.6550    -1.7120     1.5610 ca         1 HEK      -0.152600
      8 C11         -1.4100    -1.0980     1.5240 ca         1 HEK      -0.082000
      9 C12         -1.0370    -0.2960     0.4480 ca         1 HEK      -0.169500
     10 C13         -1.9450    -0.0790    -0.5850 ca         1 HEK      -0.081000
     11 N3          -4.0110     0.5660    -2.5430 nc         1 HEK      -0.347000
     12 C9          -3.5400    -1.5010     0.5130 ca         1 HEK      -0.080000
     13 C8          -3.2030    -0.6730    -0.5550 ca         1 HEK      -0.168500
     14 C7          -4.1760    -0.4010    -1.6090 cc         1 HEK       0.367800
     15 O7         -10.5140     0.3220    -2.4210 o          1 HEK      -0.499100
     16 N1          -8.0680     0.4050    -1.1830 ns         1 HEK      -0.570900
     17 C1          -5.4820     0.4730     2.8220 c          1 HEK       0.680100
     18 O5          -4.0490    -3.3180     2.5820 o          1 HEK      -0.818300
     19 C6          -5.4040    -0.9760    -1.8290 cd         1 HEK      -0.253600
     20 O4          12.9760     1.5980     0.1410 o          1 HEK      -0.608100
     21 O3           8.5820     0.9840    -1.7940 o          1 HEK      -0.612100
     22 N           -5.8710     0.9050     1.6120 ns         1 HEK      -0.578900
     23 C24         -4.1120     0.9270     3.2580 c3         1 HEK      -0.179100
     24 O           -6.2010    -0.2160     3.5330 o          1 HEK      -0.602100
     25 O1          -6.4840     1.9700    -0.7850 o          1 HEK      -0.584100
     26 N4          -5.0520     0.6240    -3.2920 nd         1 HEK      -0.211800
     27 N5           2.2990     0.9860     0.7520 na         1 HEK       0.084400
     28 N6           4.2710    -1.2490     1.0500 n8         1 HEK      -0.899800
     29 N8          10.4000     1.3000    -0.5010 ns         1 HEK      -0.562900
     30 N9          13.6670     1.7420    -2.0040 nt         1 HEK      -0.672000
     31 N10          1.9240     1.4560    -0.4250 nc         1 HEK      -0.225800
     32 N11          0.7200     1.0620    -0.6430 nd         1 HEK      -0.358000
     33 C14          0.2910     0.3120     0.3990 cd         1 HEK       0.366800
     34 C15          1.3200     0.2570     1.3110 cc         1 HEK      -0.256600
     35 C16          3.6480     1.1880     1.2280 c3         1 HEK       0.015300
     36 C17          4.5960     0.1100     0.6770 c3         1 HEK       0.083500
     37 C18          5.9980     0.4050     1.1950 c          1 HEK       0.677100
     38 C19          8.3040     0.8770     0.5910 c3         1 HEK       0.024000
     39 C20          9.1020     1.0590    -0.6900 c          1 HEK       0.657100
     40 C21         11.3180     1.4800    -1.5920 c3         1 HEK       0.017000
     41 C22         12.7350     1.6100    -1.0560 c          1 HEK       0.661100
     42 C           -9.5560     0.5400    -3.1130 c          1 HEK       0.565900
     43 H1          -7.9710     1.0500     1.5870 h1         1 HEK       0.062700
     44 H2          -7.3250    -0.5040     1.0900 h1         1 HEK       0.062700
     45 H3          -7.2370    -0.0920    -4.4430 h1         1 HEK       0.069200
     46 H4          -7.6120    -1.3730    -3.2860 h1         1 HEK       0.069200
     47 H5          -7.7960     1.6460    -2.8130 h1         1 HEK       0.119700
     48 H6          -0.7270    -1.2560     2.3490 ha         1 HEK       0.142000
     49 H7          -1.6700     0.5570    -1.4170 ha         1 HEK       0.151000
     50 H8          -4.5130    -1.9740     0.5550 ha         1 HEK       0.144000
     51 H9          -8.6000    -0.3600    -0.7950 hn         1 HEK       0.329500
     52 H11         -5.9350    -1.7840    -1.3560 h4         1 HEK       0.189000
     53 H12         -5.2600     1.4910     1.0660 hn         1 HEK       0.339500
     54 H13         -4.2160     1.6910     4.0300 hc         1 HEK       0.068033
     55 H14         -3.5660     0.0910     3.6920 hc         1 HEK       0.068033
     56 H15         -3.5160     1.3410     2.4460 hc         1 HEK       0.068033
     57 H16          4.1520    -1.3310     2.0520 hn         1 HEK       0.368800
     58 H17          3.4110    -1.5530     0.6130 hn         1 HEK       0.368800
     59 H19          6.6950     0.5660    -0.7150 hn         1 HEK       0.348500
     60 H20         10.7790     1.3530     0.4340 hn         1 HEK       0.347500
     61 H21         13.4380     1.7400    -2.9830 hn         1 HEK       0.319000
     62 H22         14.6390     1.8310    -1.7550 hn         1 HEK       0.319000
     63 H23          1.4260    -0.2100     2.2760 h4         1 HEK       0.192000
     64 H24          3.9660     2.1840     0.9200 h1         1 HEK       0.080700
     65 H25          3.6310     1.1590     2.3170 h1         1 HEK       0.080700
     66 H26          4.5800     0.1710    -0.4140 h1         1 HEK       0.083700
     67 H27          8.3990     1.7740     1.2090 h1         1 HEK       0.069700
     68 H28          8.7370     0.0520     1.1660 h1         1 HEK       0.069700
     69 H29         11.2720     0.6340    -2.2830 h1         1 HEK       0.068700
     70 H30         11.0770     2.3760    -2.1720 h1         1 HEK       0.068700
     71 H31         -9.6460     0.6940    -4.2000 h4         1 HEK      -0.006800
     72 O2           6.2280     0.4310     2.3980 o          1 HEK      -0.616100
     73 N7           6.9300     0.6180     0.2650 ns         1 HEK      -0.556900
     74 C23         -3.0590    -2.5830     2.7450 c          1 HEK       0.924200
@<TRIPOS>BOND
     1     1     3 1   
     2     1    22 1   
     3     1    43 1   
     4     1    44 1   
     5     2     4 1   
     6     2    19 1   
     7     2    26 1   
     8     3    16 1   
     9     3    25 2   
    10     4     6 1   
    11     4    45 1   
    12     4    46 1   
    13     5    74 1   
    14     6    16 1   
    15     6    42 1   
    16     6    47 1   
    17     7     8 ar  
    18     7    12 ar  
    19     7    74 1   
    20     8     9 ar  
    21     8    48 1   
    22     9    10 ar  
    23     9    33 1   
    24    10    13 ar  
    25    10    49 1   
    26    11    14 1   
    27    11    26 2   
    28    12    13 ar  
    29    12    50 1   
    30    13    14 1   
    31    14    19 2   
    32    15    42 2   
    33    16    51 1   
    34    17    22 1   
    35    17    23 1   
    36    17    24 2   
    37    18    74 1   
    38    19    52 1   
    39    20    41 2   
    40    21    39 2   
    41    22    53 1   
    42    23    54 1   
    43    23    55 1   
    44    23    56 1   
    45    27    31 1   
    46    27    34 1   
    47    27    35 1   
    48    28    36 1   
    49    28    57 1   
    50    28    58 1   
    51    29    39 1   
    52    29    40 1   
    53    29    60 1   
    54    30    41 1   
    55    30    61 1   
    56    30    62 1   
    57    31    32 2   
    58    32    33 1   
    59    33    34 2   
    60    34    63 1   
    61    35    36 1   
    62    35    64 1   
    63    35    65 1   
    64    36    37 1   
    65    36    66 1   
    66    37    72 2   
    67    37    73 1   
    68    38    39 1   
    69    38    67 1   
    70    38    68 1   
    71    38    73 1   
    72    40    41 1   
    73    40    69 1   
    74    40    70 1   
    75    42    71 1   
    76    59    73 1   
@<TRIPOS>SUBSTRUCTURE
     1 HEK         1 TEMP              0 ****  ****    0 ROOT
