@<TRIPOS>MOLECULE
HEK
   74    76     1     0     0
SMALL
No Charge or Current Charge


@<TRIPOS>ATOM
      1 C2          -6.7220     1.4840     0.8990 c3         1 HEK       0.035000
      2 N2          -6.1580    -0.6750    -2.7600 na         1 HEK       0.108800
      3 C3          -6.8330     1.6770    -0.6310 c          1 HEK       0.588100
      4 C5          -7.5600    -0.4480    -3.1550 c3         1 HEK       0.069600
      5 O6          -2.6820    -3.1120     3.8420 o          1 HEK      -0.713000
      6 C4          -8.1300     0.9190    -2.6810 c3         1 HEK      -0.037300
      7 C10         -2.9620    -2.2470     1.6600 ca         1 HEK      -0.152600
      8 C11         -1.6590    -1.7050     1.6060 ca         1 HEK      -0.064000
      9 C12         -1.2290    -0.9510     0.4940 ca         1 HEK      -0.169500
     10 C13         -2.1270    -0.7370    -0.5740 ca         1 HEK      -0.063000
     11 N3          -4.0030    -0.5160    -2.8870 nc         1 HEK      -0.347000
     12 C9          -3.8410    -2.0150     0.5800 ca         1 HEK      -0.062000
     13 C8          -3.4400    -1.2500    -0.5370 ca         1 HEK      -0.168500
     14 C7          -4.3570    -1.0000    -1.6610 cc         1 HEK       0.302500
     15 O7         -10.5470     1.1200    -2.3120 o          1 HEK      -0.499100
     16 N1          -7.9580     1.1240    -1.2140 ns         1 HEK      -0.503900
     17 C1          -4.7950     1.1530     2.5050 c          1 HEK       0.613100
     18 O5          -4.4660    -3.6790     2.7890 o          1 HEK      -0.713000
     19 C6          -5.7020    -1.1430    -1.5470 cd         1 HEK      -0.221000
     20 O4          12.9130     2.6340     0.1060 o          1 HEK      -0.608100
     21 O3           8.5780     1.0380    -1.7740 o          1 HEK      -0.612100
     22 N           -5.3380     1.7110     1.3720 ns         1 HEK      -0.511900
     23 C24         -3.3180     1.4490     2.7200 c3         1 HEK      -0.179100
     24 O           -5.4520     0.4730     3.2780 o          1 HEK      -0.602100
     25 O1          -5.9800     2.2570    -1.2920 o          1 HEK      -0.584100
     26 N4          -5.1050    -0.3170    -3.5700 nd         1 HEK      -0.211800
     27 N5           2.1650     0.1980     0.8710 na         1 HEK       0.105800
     28 N6           4.3690    -1.9260     1.0490 n8         1 HEK      -1.010200
     29 N8          10.3390     1.6840    -0.4890 ns         1 HEK      -0.495900
     30 N9          13.5320     2.8760    -2.0230 nt         1 HEK      -0.605000
     31 N10          1.8510     0.7270    -0.3440 nc         1 HEK      -0.225800
     32 N11          0.6220     0.3680    -0.5980 nd         1 HEK      -0.358000
     33 C14          0.1380    -0.3880     0.4530 cd         1 HEK       0.301500
     34 C15          1.1140    -0.5050     1.4040 cc         1 HEK      -0.224000
     35 C16          3.4910     0.4200     1.4730 c3         1 HEK       0.044600
     36 C17          4.6210    -0.4480     0.8550 c3         1 HEK       0.083500
     37 C18          6.0150     0.0610     1.3670 c          1 HEK       0.610100
     38 C19          8.2870     0.9170     0.6490 c3         1 HEK       0.024000
     39 C20          9.0580     1.2100    -0.6600 c          1 HEK       0.590100
     40 C21         11.2600     2.0320    -1.5950 c3         1 HEK       0.017000
     41 C22         12.6280     2.5350    -1.0780 c          1 HEK       0.594100
     42 C           -9.6100     1.0640    -3.1040 c          1 HEK       0.565900
     43 H1          -7.4060     2.1880     1.3910 h1         1 HEK       0.062700
     44 H2          -7.0330     0.4600     1.1410 h1         1 HEK       0.062700
     45 H3          -7.6310    -0.5170    -4.2480 h1         1 HEK       0.069200
     46 H4          -8.1650    -1.2600    -2.7320 h1         1 HEK       0.069200
     47 H5          -7.5910     1.7120    -3.2160 h1         1 HEK       0.119700
     48 H6          -0.9770    -1.8780     2.4340 ha         1 HEK       0.124000
     49 H7          -1.8070    -0.1530    -1.4340 ha         1 HEK       0.133000
     50 H8          -4.8420    -2.4370     0.6160 ha         1 HEK       0.126000
     51 H9          -8.6440     0.7160    -0.5850 hn         1 HEK       0.329500
     52 H11         -6.3430    -1.4560    -0.7350 h4         1 HEK       0.171000
     53 H12         -4.7120     2.2480     0.7810 hn         1 HEK       0.339500
     54 H13         -3.1810     2.5340     2.7870 hc         1 HEK       0.068033
     55 H14         -2.9100     0.9370     3.5980 hc         1 HEK       0.068033
     56 H15         -2.7650     1.1990     1.8080 hc         1 HEK       0.068033
     57 H16          4.3900    -2.1530     2.0530 hn         1 HEK       0.424000
     58 H17          3.4060    -2.1550     0.7700 hn         1 HEK       0.424000
     59 H19          6.6290     0.2910    -0.5780 hn         1 HEK       0.348500
     60 H20         10.6680     1.8000     0.4650 hn         1 HEK       0.347500
     61 H21         13.3000     2.7960    -3.0020 hn         1 HEK       0.319000
     62 H22         14.4410     3.2110    -1.7370 hn         1 HEK       0.319000
     63 H23          1.1430    -1.0000     2.3640 h4         1 HEK       0.174000
     64 H24          3.7430     1.4800     1.3450 h1         1 HEK       0.080700
     65 H25          3.4250     0.2290     2.5510 h1         1 HEK       0.080700
     66 H26          4.6070    -0.2570    -0.2280 h1         1 HEK       0.083700
     67 H27          8.2310     1.8440     1.2320 h1         1 HEK       0.069700
     68 H28          8.8520     0.1720     1.2230 h1         1 HEK       0.069700
     69 H29         11.4320     1.1490    -2.2230 h1         1 HEK       0.068700
     70 H30         10.8130     2.8210    -2.2130 h1         1 HEK       0.068700
     71 H31         -9.7860     1.1180    -4.2000 h4         1 HEK      -0.006800
     72 O2           6.2940     0.1510     2.5570 o          1 HEK      -0.616100
     73 N7           6.9200     0.4100     0.3880 ns         1 HEK      -0.489900
     74 C23         -3.4080    -3.0700     2.8580 c          1 HEK       0.713600
@<TRIPOS>BOND
     1     1     3 1   
     2     1    22 1   
     3     1    43 1   
     4     1    44 1   
     5     2     4 1   
     6     2    19 1   
     7     2    26 1   
     8     3    16 1   
     9     3    25 2   
    10     4     6 1   
    11     4    45 1   
    12     4    46 1   
    13     5    74 1   
    14     6    16 1   
    15     6    42 1   
    16     6    47 1   
    17     7     8 ar  
    18     7    12 ar  
    19     7    74 1   
    20     8     9 ar  
    21     8    48 1   
    22     9    10 ar  
    23     9    33 1   
    24    10    13 ar  
    25    10    49 1   
    26    11    14 1   
    27    11    26 2   
    28    12    13 ar  
    29    12    50 1   
    30    13    14 1   
    31    14    19 2   
    32    15    42 2   
    33    16    51 1   
    34    17    22 1   
    35    17    23 1   
    36    17    24 2   
    37    18    74 1   
    38    19    52 1   
    39    20    41 2   
    40    21    39 2   
    41    22    53 1   
    42    23    54 1   
    43    23    55 1   
    44    23    56 1   
    45    27    31 1   
    46    27    34 1   
    47    27    35 1   
    48    28    36 1   
    49    28    57 1   
    50    28    58 1   
    51    29    39 1   
    52    29    40 1   
    53    29    60 1   
    54    30    41 1   
    55    30    61 1   
    56    30    62 1   
    57    31    32 2   
    58    32    33 1   
    59    33    34 2   
    60    34    63 1   
    61    35    36 1   
    62    35    64 1   
    63    35    65 1   
    64    36    37 1   
    65    36    66 1   
    66    37    72 2   
    67    37    73 1   
    68    38    39 1   
    69    38    67 1   
    70    38    68 1   
    71    38    73 1   
    72    40    41 1   
    73    40    69 1   
    74    40    70 1   
    75    42    71 1   
    76    59    73 1   
@<TRIPOS>SUBSTRUCTURE
     1 HEK         1 TEMP              0 ****  ****    0 ROOT
