@<TRIPOS>MOLECULE
HEL
   54    55     1     0     0
SMALL
No Charge or Current Charge


@<TRIPOS>ATOM
      1 S1           3.7740     0.6910    -1.6230 ss         1 HEL      -0.590000
      2 C2           5.5890     1.0110    -1.3640 c5         1 HEL       0.160000
      3 C3           5.7570     0.8140     0.1870 c5         1 HEL      -0.045300
      4 N4           4.6820    -0.1000     0.6100 nj         1 HEL      -0.305800
      5 C5           3.7970    -0.6940    -0.3970 cy         1 HEL       0.203700
      6 C6           2.6930    -0.7980     0.7120 cy         1 HEL       0.001700
      7 C7           3.6650     0.1020     1.5460 c          1 HEL       0.532000
      8 N8           1.3470    -0.3280     0.4290 ns         1 HEL      -0.480900
      9 C9           0.2890    -0.4440     1.3010 c          1 HEL       0.606100
     10 O10          0.4010    -0.9820     2.3940 o          1 HEL      -0.601100
     11 C11         -1.0250     0.1800     0.8180 c3         1 HEL      -0.158400
     12 C12         -2.0520    -0.9030     0.4090 c3         1 HEL      -0.066400
     13 C13         -3.3880    -0.3080    -0.0860 c3         1 HEL      -0.079400
     14 C14         -4.4180    -1.3890    -0.4920 c3         1 HEL      -0.077400
     15 C15         -5.7470    -0.8290    -1.0640 c3         1 HEL      -0.061300
     16 C16         -6.6610    -1.9690    -1.5970 c          1 HEL       0.718000
     17 O17         -7.2540    -2.6660    -0.7830 o          1 HEL      -0.704500
     18 O18         -6.8200    -2.0620    -2.8050 o          1 HEL      -0.704500
     19 N19         -6.4860    -0.0130    -0.0690 ns         1 HEL      -0.389900
     20 C20         -6.4500     1.3630     0.0230 c          1 HEL       0.582100
     21 O21         -5.8040     2.0670    -0.7430 o          1 HEL      -0.620100
     22 C22         -7.3010     1.9580     1.1760 c3         1 HEL      -0.024400
     23 N23         -7.2290     3.4960     1.2700 nz         1 HEL      -0.951000
     24 C24          6.3790     0.0100    -2.2520 c3         1 HEL      -0.076100
     25 C25          5.9050     2.4520    -1.8260 c3         1 HEL      -0.076100
     26 C26          7.1980     0.3370     0.5430 c          1 HEL       0.734000
     27 O27          8.0650     1.1840     0.7100 o          1 HEL      -0.704500
     28 O28          7.4140    -0.8510     0.7470 o          1 HEL      -0.704500
     29 O29          3.5910     0.7700     2.5700 o          1 HEL      -0.513000
     30 H3           5.5900     1.7640     0.7100 h1         1 HEL       0.058700
     31 H5           4.1520    -1.6260    -0.8520 h2         1 HEL       0.108700
     32 H6           2.6330    -1.8040     1.1410 h1         1 HEL       0.113700
     33 HN8          1.1600     0.1540    -0.4440 hn         1 HEL       0.324500
     34 H111        -1.4530     0.7730     1.6340 hc         1 HEL       0.052700
     35 H112        -0.8370     0.8250    -0.0490 hc         1 HEL       0.052700
     36 H121        -1.6190    -1.5290    -0.3820 hc         1 HEL       0.057700
     37 H122        -2.2450    -1.5600     1.2660 hc         1 HEL       0.057700
     38 H131        -3.8100     0.3200     0.7080 hc         1 HEL       0.023700
     39 H132        -3.1960     0.3450    -0.9460 hc         1 HEL       0.023700
     40 H141        -3.9630    -2.0410    -1.2490 hc         1 HEL       0.065200
     41 H142        -4.6370    -2.0240     0.3760 hc         1 HEL       0.065200
     42 H15         -5.5080    -0.1940    -1.9270 h1         1 HEL       0.074700
     43 H19         -7.0720    -0.5010     0.5990 hn         1 HEL       0.303500
     44 H221        -8.3370     1.6470     1.0080 hx         1 HEL       0.112200
     45 H222        -6.9400     1.5140     2.1080 hx         1 HEL       0.112200
     46 H231        -6.2690     3.8480     1.4190 hn         1 HEL       0.509333
     47 H232        -7.5460     3.9690     0.4070 hn         1 HEL       0.509333
     48 H233        -7.7960     3.8990     2.0340 hn         1 HEL       0.509333
     49 H241         7.4590     0.1890    -2.1970 hc         1 HEL       0.044033
     50 H242         6.1990    -1.0290    -1.9520 hc         1 HEL       0.044033
     51 H243         6.0880     0.1020    -3.3050 hc         1 HEL       0.044033
     52 H251         5.6840     2.5880    -2.8920 hc         1 HEL       0.044033
     53 H252         5.3090     3.1860    -1.2700 hc         1 HEL       0.044033
     54 H253         6.9620     2.6960    -1.6700 hc         1 HEL       0.044033
@<TRIPOS>BOND
     1     1     2 1   
     2     1     5 1   
     3     2     3 1   
     4     2    24 1   
     5     2    25 1   
     6     3     4 1   
     7     3    26 1   
     8     3    30 1   
     9     4     5 1   
    10     4     7 1   
    11     5     6 1   
    12     5    31 1   
    13     6     7 1   
    14     6     8 1   
    15     6    32 1   
    16     7    29 2   
    17     8     9 1   
    18     8    33 1   
    19     9    10 2   
    20     9    11 1   
    21    11    12 1   
    22    11    34 1   
    23    11    35 1   
    24    12    13 1   
    25    12    36 1   
    26    12    37 1   
    27    13    14 1   
    28    13    38 1   
    29    13    39 1   
    30    14    15 1   
    31    14    40 1   
    32    14    41 1   
    33    15    16 1   
    34    15    19 1   
    35    15    42 1   
    36    16    17 1   
    37    16    18 1   
    38    19    20 1   
    39    19    43 1   
    40    20    21 2   
    41    20    22 1   
    42    22    23 1   
    43    22    44 1   
    44    22    45 1   
    45    23    46 1   
    46    23    47 1   
    47    23    48 1   
    48    24    49 1   
    49    24    50 1   
    50    24    51 1   
    51    25    52 1   
    52    25    53 1   
    53    25    54 1   
    54    26    27 1   
    55    26    28 1   
@<TRIPOS>SUBSTRUCTURE
     1 HEL         1 TEMP              0 ****  ****    0 ROOT
