@<TRIPOS>MOLECULE
HEL
   54    55     1     0     0
SMALL
bcc


@<TRIPOS>ATOM
      1 S1           3.9010     0.5070    -1.5890 ss         1 HEL      -0.494200
      2 C2           5.6450     1.0290    -1.2320 c5         1 HEL       0.112100
      3 C3           5.7950     0.8670     0.3130 c5         1 HEL      -0.045300
      4 N4           4.8620    -0.1750     0.6970 nj         1 HEL      -0.372800
      5 C5           4.0570    -0.7970    -0.3440 cy         1 HEL       0.155800
      6 C6           2.9050    -0.9220     0.6830 cy         1 HEL       0.001700
      7 C7           3.8090    -0.0370     1.5540 c          1 HEL       0.674500
      8 N8           1.6160    -0.4200     0.3680 ns         1 HEL      -0.547900
      9 C9           0.4820    -1.1610     0.4560 c          1 HEL       0.673100
     10 O10          0.4900    -2.3380     0.7710 o          1 HEL      -0.601100
     11 C11         -0.7830    -0.3900     0.1500 c3         1 HEL      -0.158400
     12 C12         -2.0170    -1.2650     0.0050 c3         1 HEL      -0.066400
     13 C13         -3.2690    -0.4400    -0.2640 c3         1 HEL      -0.079400
     14 C14         -4.5140    -1.3100    -0.3900 c3         1 HEL      -0.077400
     15 C15         -5.7780    -0.5330    -0.7470 c3         1 HEL      -0.061300
     16 C16         -6.9910    -1.4760    -0.9910 c          1 HEL       0.928600
     17 O17         -8.0180    -1.2760    -0.3220 o          1 HEL      -0.809800
     18 O18         -6.8080    -2.3510    -1.8590 o          1 HEL      -0.809800
     19 N19         -6.0630     0.4500     0.2770 ns         1 HEL      -0.456900
     20 C20         -6.8810     1.4770     0.0670 c          1 HEL       0.649100
     21 O21         -7.2540     1.8750    -1.0270 o          1 HEL      -0.620100
     22 C22         -7.3600     2.1700     1.3310 c3         1 HEL       0.003800
     23 N23         -7.8440     3.5210     0.9930 nz         1 HEL      -0.813600
     24 C24          6.5860     0.1200    -2.0170 c3         1 HEL      -0.076100
     25 C25          5.8190     2.4770    -1.6620 c3         1 HEL      -0.076100
     26 C26          7.2600     0.6020     0.7320 c          1 HEL       0.944600
     27 O27          8.0110     1.5920     0.6450 o          1 HEL      -0.809800
     28 O28          7.5500    -0.5450     1.0990 o          1 HEL      -0.809800
     29 O29          3.6660     0.6090     2.5590 o          1 HEL      -0.588500
     30 H3           5.4640     1.7990     0.7840 h1         1 HEL       0.058700
     31 H5           4.4510    -1.7240    -0.7580 h2         1 HEL       0.108700
     32 H6           2.8150    -1.9390     1.0670 h1         1 HEL       0.113700
     33 HN8          1.5350     0.5480     0.0980 hn         1 HEL       0.324500
     34 H111        -0.9300     0.3340     0.9590 hc         1 HEL       0.052700
     35 H112        -0.6290     0.2070    -0.7530 hc         1 HEL       0.052700
     36 H121        -1.8710    -1.9810    -0.8090 hc         1 HEL       0.057700
     37 H122        -2.1600    -1.8560     0.9120 hc         1 HEL       0.057700
     38 H131        -3.3980     0.2920     0.5400 hc         1 HEL       0.023700
     39 H132        -3.1390     0.1400    -1.1840 hc         1 HEL       0.023700
     40 H141        -4.3600    -2.0560    -1.1690 hc         1 HEL       0.065200
     41 H142        -4.6700    -1.8680     0.5410 hc         1 HEL       0.065200
     42 H15         -5.5870     0.0070    -1.6790 h1         1 HEL       0.074700
     43 H19         -5.9090     0.1660     1.2340 hn         1 HEL       0.303500
     44 H221        -8.1950     1.6130     1.7540 hx         1 HEL       0.112200
     45 H222        -6.5850     2.2630     2.0880 hx         1 HEL       0.112200
     46 H231        -7.0780     4.1550     0.7640 hn         1 HEL       0.454133
     47 H232        -8.4640     3.4960     0.1820 hn         1 HEL       0.454133
     48 H233        -8.3580     3.9390     1.7670 hn         1 HEL       0.454133
     49 H241         7.6250     0.4100    -1.8510 hc         1 HEL       0.044033
     50 H242         6.4830    -0.9290    -1.7380 hc         1 HEL       0.044033
     51 H243         6.3860     0.2070    -3.0840 hc         1 HEL       0.044033
     52 H251         5.6730     2.5890    -2.7360 hc         1 HEL       0.044033
     53 H252         5.1170     3.1330    -1.1470 hc         1 HEL       0.044033
     54 H253         6.8300     2.8060    -1.4220 hc         1 HEL       0.044033
@<TRIPOS>BOND
     1     1     2 1   
     2     1     5 1   
     3     2     3 1   
     4     2    24 1   
     5     2    25 1   
     6     3     4 1   
     7     3    26 1   
     8     3    30 1   
     9     4     5 1   
    10     4     7 1   
    11     5     6 1   
    12     5    31 1   
    13     6     7 1   
    14     6     8 1   
    15     6    32 1   
    16     7    29 2   
    17     8     9 1   
    18     8    33 1   
    19     9    10 2   
    20     9    11 1   
    21    11    12 1   
    22    11    34 1   
    23    11    35 1   
    24    12    13 1   
    25    12    36 1   
    26    12    37 1   
    27    13    14 1   
    28    13    38 1   
    29    13    39 1   
    30    14    15 1   
    31    14    40 1   
    32    14    41 1   
    33    15    16 1   
    34    15    19 1   
    35    15    42 1   
    36    16    17 1   
    37    16    18 1   
    38    19    20 1   
    39    19    43 1   
    40    20    21 2   
    41    20    22 1   
    42    22    23 1   
    43    22    44 1   
    44    22    45 1   
    45    23    46 1   
    46    23    47 1   
    47    23    48 1   
    48    24    49 1   
    49    24    50 1   
    50    24    51 1   
    51    25    52 1   
    52    25    53 1   
    53    25    54 1   
    54    26    27 1   
    55    26    28 1   
@<TRIPOS>SUBSTRUCTURE
     1 HEL         1 TEMP              0 ****  ****    0 ROOT
