@<TRIPOS>MOLECULE
HEP
   43    43     1     0     0
SMALL
bcc


@<TRIPOS>ATOM
      1 C1           0.9710    -0.1220    -0.1730 c3         1 HEP      -0.068500
      2 C2           2.3150     0.3260     0.3970 c3         1 HEP      -0.051400
      3 C3           2.5830    -0.0810     1.8410 c3         1 HEP      -0.075400
      4 C4           4.0150     0.2220     2.2660 c3         1 HEP      -0.073400
      5 C5           4.2950    -0.1610     3.7120 c3         1 HEP      -0.084100
      6 C6          -2.7910    -0.4160     2.8960 ca         1 HEP      -0.174000
      7 C7          -3.5740    -0.2060     4.0230 ca         1 HEP      -0.121500
      8 C8          -2.9870     0.0960     5.2450 ca         1 HEP      -0.193000
      9 C9          -1.6040     0.1830     5.3320 ca         1 HEP      -0.121500
     10 C10         -0.8130    -0.0200     4.2100 ca         1 HEP      -0.174000
     11 C11         -1.4040    -0.3280     2.9880 ca         1 HEP       0.228100
     12 C12          0.2860    -0.4760    -2.5200 c          1 HEP       0.673100
     13 C13          0.1990    -0.7130    -5.0430 c3         1 HEP      -0.194400
     14 C14          0.1320     0.2270    -3.8520 c3         1 HEP      -0.131400
     15 C15         -0.0170    -0.0370    -6.4090 c          1 HEP       0.924600
     16 O1P         -0.1980     1.9070     1.3130 o          1 HEP      -0.796000
     17 O2P         -1.7240     0.4350    -0.1930 o          1 HEP      -0.796000
     18 O3P         -0.6180    -0.5750     1.9090 os         1 HEP      -0.482500
     19 O4          -0.1130    -1.6170    -2.3260 o          1 HEP      -0.637100
     20 O5          -0.4150     1.1450    -6.4190 o          1 HEP      -0.860800
     21 O6           0.2120    -0.7490    -7.4100 o          1 HEP      -0.860800
     22 N1           0.8990     0.2540    -1.5710 ns         1 HEP      -0.560900
     23 P           -0.5140     0.5800     0.6850 p5         1 HEP       1.212600
     24 H1           0.9040    -1.2120    -0.1270 h1         1 HEP       0.083700
     25 H21          2.4000     1.4140     0.3090 hc         1 HEP       0.027200
     26 H22          3.0980    -0.0980    -0.2400 hc         1 HEP       0.027200
     27 H31          2.3850    -1.1500     1.9680 hc         1 HEP       0.048200
     28 H32          1.8940     0.4430     2.5070 hc         1 HEP       0.048200
     29 H41          4.2180     1.2880     2.1230 hc         1 HEP       0.028200
     30 H42          4.7090    -0.3090     1.6080 hc         1 HEP       0.028200
     31 H51          5.3290     0.0510     3.9900 hc         1 HEP       0.019700
     32 H52          3.6500     0.3890     4.4010 hc         1 HEP       0.019700
     33 H53          4.1200    -1.2250     3.8790 hc         1 HEP       0.019700
     34 H8          -3.6020     0.2570     6.1210 ha         1 HEP       0.100000
     35 H9          -1.1340     0.4200     6.2790 ha         1 HEP       0.103500
     36 H10          0.2660     0.0470     4.2800 ha         1 HEP       0.147500
     37 H131         1.1610    -1.2340    -5.0590 hc         1 HEP       0.028700
     38 H132        -0.5530    -1.5000    -4.9360 hc         1 HEP       0.028700
     39 H141        -0.8370     0.7360    -3.8340 hc         1 HEP       0.056200
     40 H142         0.8790     1.0180    -3.9470 hc         1 HEP       0.056200
     41 HN1          1.1570     1.2020    -1.8000 hn         1 HEP       0.297500
     42 H6          -3.2510    -0.6600     1.9470 ha         1 HEP       0.147500
     43 H7          -4.6520    -0.2780     3.9420 ha         1 HEP       0.103500
@<TRIPOS>BOND
     1     1     2 1   
     2     1    22 1   
     3     1    23 1   
     4     1    24 1   
     5     2     3 1   
     6     2    25 1   
     7     2    26 1   
     8     3     4 1   
     9     3    27 1   
    10     3    28 1   
    11     4     5 1   
    12     4    29 1   
    13     4    30 1   
    14     5    31 1   
    15     5    32 1   
    16     5    33 1   
    17     6     7 ar  
    18     6    11 ar  
    19     6    42 1   
    20     7     8 ar  
    21     7    43 1   
    22     8     9 ar  
    23     8    34 1   
    24     9    10 ar  
    25     9    35 1   
    26    10    11 ar  
    27    10    36 1   
    28    11    18 1   
    29    12    14 1   
    30    12    19 2   
    31    12    22 1   
    32    13    14 1   
    33    13    15 1   
    34    13    37 1   
    35    13    38 1   
    36    14    39 1   
    37    14    40 1   
    38    15    20 1   
    39    15    21 1   
    40    16    23 1   
    41    17    23 1   
    42    18    23 1   
    43    22    41 1   
@<TRIPOS>SUBSTRUCTURE
     1 HEP         1 TEMP              0 ****  ****    0 ROOT
