@<TRIPOS>MOLECULE
HEP
   43    43     1     0     0
SMALL
No Charge or Current Charge


@<TRIPOS>ATOM
      1 C1           0.2130     0.3210    -0.2680 c3         1 HEP      -0.226300
      2 C2           1.5550     0.7660     0.3750 c3         1 HEP      -0.051400
      3 C3           1.6850     0.4490     1.8820 c3         1 HEP      -0.075400
      4 C4           3.0820     0.7660     2.4560 c3         1 HEP      -0.073400
      5 C5           3.1930     0.4580     3.9620 c3         1 HEP      -0.084100
      6 C6          -1.5730     0.8650     3.6430 ca         1 HEP      -0.156000
      7 C7          -1.2310     0.6220     4.9850 ca         1 HEP      -0.103500
      8 C8          -0.8720    -0.6730     5.3950 ca         1 HEP      -0.175000
      9 C9          -0.8660    -1.7280     4.4690 ca         1 HEP      -0.103500
     10 C10         -1.2100    -1.4840     3.1280 ca         1 HEP      -0.156000
     11 C11         -1.5410    -0.1860     2.7050 ca         1 HEP       0.228100
     12 C12         -0.1930    -0.6010    -2.6170 c          1 HEP       0.606100
     13 C13          1.1030    -1.2740    -4.7260 c3         1 HEP      -0.194400
     14 C14          0.0390    -0.3220    -4.1090 c3         1 HEP      -0.131400
     15 C15          1.3090    -0.9590    -6.2170 c          1 HEP       0.714000
     16 O1P         -1.0030     2.4460     1.0800 o          1 HEP      -0.796000
     17 O2P         -2.3240     1.3830    -0.7250 o          1 HEP      -0.796000
     18 O3P         -1.8630    -0.0030     1.3860 os         1 HEP      -0.482500
     19 O4          -0.8320    -1.5670    -2.2190 o          1 HEP      -0.637100
     20 O5           0.5930    -1.5220    -7.0310 o          1 HEP      -0.755500
     21 O6           2.1420    -0.1180    -6.5200 o          1 HEP      -0.755500
     22 N1           0.3470     0.3370    -1.7570 ns         1 HEP      -0.493900
     23 P           -1.3470     1.1650     0.3890 p5         1 HEP       1.370400
     24 H1           0.0460    -0.7210     0.0290 h1         1 HEP       0.083700
     25 H21          1.7010     1.8420     0.2120 hc         1 HEP       0.027200
     26 H22          2.3750     0.2580    -0.1480 hc         1 HEP       0.027200
     27 H31          1.4620    -0.6120     2.0500 hc         1 HEP       0.048200
     28 H32          0.9460     1.0300     2.4430 hc         1 HEP       0.048200
     29 H41          3.3130     1.8250     2.2900 hc         1 HEP       0.028200
     30 H42          3.8400     0.1840     1.9160 hc         1 HEP       0.028200
     31 H51          4.1980     0.6980     4.3280 hc         1 HEP       0.019700
     32 H52          2.4680     1.0510     4.5330 hc         1 HEP       0.019700
     33 H53          3.0000    -0.6040     4.1560 hc         1 HEP       0.019700
     34 H8          -0.6070    -0.8600     6.4330 ha         1 HEP       0.082000
     35 H9          -0.5970    -2.7330     4.7880 ha         1 HEP       0.085500
     36 H10         -1.2040    -2.2990     2.4080 ha         1 HEP       0.129500
     37 H131         2.0280    -1.0910    -4.1650 hc         1 HEP       0.028700
     38 H132         0.7060    -2.2890    -4.6020 hc         1 HEP       0.028700
     39 H141        -0.9070    -0.4670    -4.6430 hc         1 HEP       0.056200
     40 H142         0.3830     0.7110    -4.2440 hc         1 HEP       0.056200
     41 HN1          0.8420     1.1080    -2.1920 hn         1 HEP       0.297500
     42 H6          -1.8710     1.8660     3.3470 ha         1 HEP       0.129500
     43 H7          -1.2500     1.4350     5.7070 ha         1 HEP       0.085500
@<TRIPOS>BOND
     1     1     2 1   
     2     1    22 1   
     3     1    23 1   
     4     1    24 1   
     5     2     3 1   
     6     2    25 1   
     7     2    26 1   
     8     3     4 1   
     9     3    27 1   
    10     3    28 1   
    11     4     5 1   
    12     4    29 1   
    13     4    30 1   
    14     5    31 1   
    15     5    32 1   
    16     5    33 1   
    17     6     7 ar  
    18     6    11 ar  
    19     6    42 1   
    20     7     8 ar  
    21     7    43 1   
    22     8     9 ar  
    23     8    34 1   
    24     9    10 ar  
    25     9    35 1   
    26    10    11 ar  
    27    10    36 1   
    28    11    18 1   
    29    12    14 1   
    30    12    19 2   
    31    12    22 1   
    32    13    14 1   
    33    13    15 1   
    34    13    37 1   
    35    13    38 1   
    36    14    39 1   
    37    14    40 1   
    38    15    20 1   
    39    15    21 1   
    40    16    23 1   
    41    17    23 1   
    42    18    23 1   
    43    22    41 1   
@<TRIPOS>SUBSTRUCTURE
     1 HEP         1 TEMP              0 ****  ****    0 ROOT
