@<TRIPOS>MOLECULE
HER
   36    38     1     0     0
SMALL
abcg2


@<TRIPOS>ATOM
      1 C4          13.6670    14.5640    39.0830 ca         1 HER       0.095600
      2 C5          13.4480    13.5040    39.9500 ca         1 HER      -0.159500
      3 C6          14.3410    13.2470    40.9910 ca         1 HER      -0.012800
      4 C7          14.1120    12.1560    41.9370 cc         1 HER       0.147900
      5 C8          14.5570    11.5650    44.1830 ca         1 HER       0.254100
      6 C10         13.3420     9.9950    42.7590 c          1 HER       0.578900
      7 C13         15.0720    11.0780    46.4520 ca         1 HER       0.254100
      8 C15         13.8540     9.4630    45.1420 ca         1 HER       0.283100
      9 C1          15.4590    14.0660    41.1540 ca         1 HER      -0.159500
     10 C11         13.4950    10.9720    41.7000 cd         1 HER      -0.057100
     11 C12         15.1440    11.9580    45.3770 ca         1 HER      -0.299000
     12 C14         14.4280     9.8360    46.3370 ca         1 HER      -0.251000
     13 C16         16.2960    12.5530    47.8500 c3         1 HER       0.145900
     14 C2          15.6770    15.1200    40.2820 ca         1 HER       0.095600
     15 C3          14.7880    15.3820    39.2380 ca         1 HER       0.104100
     16 C9          13.9110    10.3390    44.0270 ca         1 HER      -0.379600
     17 O1          14.6210    12.4270    43.1610 os         1 HER      -0.206200
     18 O2          12.7550     8.9240    42.5310 o          1 HER      -0.615100
     19 O3          13.0170    10.6450    40.4880 oh         1 HER      -0.519100
     20 O4          13.2510     8.2810    45.0420 oh         1 HER      -0.530100
     21 O5          15.5970    11.3370    47.6500 os         1 HER      -0.327100
     22 O6          16.7340    15.9570    40.3660 oh         1 HER      -0.532600
     23 O7          14.9600    16.4020    38.3760 oh         1 HER      -0.509100
     24 O8          12.8360    14.8720    38.0680 oh         1 HER      -0.532600
     25 H1          12.5590    12.9020    39.8220 ha         1 HER       0.131500
     26 H2          16.1730    13.8890    41.9490 ha         1 HER       0.131500
     27 H3          15.6310    12.9210    45.4380 ha         1 HER       0.141000
     28 H4          14.3890     9.1710    47.1910 ha         1 HER       0.153000
     29 H5          16.6450    12.5390    48.8790 h1         1 HER       0.048033
     30 H6          17.1580    12.6370    47.1840 h1         1 HER       0.048033
     31 H7          15.6480    13.4210    47.7070 h1         1 HER       0.048033
     32 H8          12.6370     9.7550    40.5500 ho         1 HER       0.491000
     33 H9          12.9080     8.1860    44.1270 ho         1 HER       0.519000
     34 H10         17.3140    15.7150    41.0960 ho         1 HER       0.471500
     35 H11         15.7740    16.8770    38.5810 ho         1 HER       0.479000
     36 H12         12.0970    14.2550    38.0400 ho         1 HER       0.471500
@<TRIPOS>BOND
     1     1     2 ar  
     2     1    15 ar  
     3     1    24 1   
     4     2     3 ar  
     5     2    25 1   
     6     3     4 1   
     7     3     9 ar  
     8     4    10 2   
     9     4    17 1   
    10     5    11 ar  
    11     5    16 ar  
    12     5    17 1   
    13     6    10 1   
    14     6    16 1   
    15     6    18 2   
    16     7    11 ar  
    17     7    12 ar  
    18     7    21 1   
    19     8    12 ar  
    20     8    16 ar  
    21     8    20 1   
    22     9    14 ar  
    23     9    26 1   
    24    10    19 1   
    25    11    27 1   
    26    12    28 1   
    27    13    21 1   
    28    13    29 1   
    29    13    30 1   
    30    13    31 1   
    31    14    15 ar  
    32    14    22 1   
    33    15    23 1   
    34    19    32 1   
    35    20    33 1   
    36    22    34 1   
    37    23    35 1   
    38    24    36 1   
@<TRIPOS>SUBSTRUCTURE
     1 HER         1 TEMP              0 ****  ****    0 ROOT
