@<TRIPOS>MOLECULE
HER
   36    38     1     0     0
SMALL
No Charge or Current Charge


@<TRIPOS>ATOM
      1 C4          13.4170    14.7740    39.3090 ca         1 HER       0.095600
      2 C5          13.3260    13.7200    40.2350 ca         1 HER      -0.159500
      3 C6          14.4550    13.3100    40.9770 ca         1 HER      -0.012800
      4 C7          14.3600    12.2220    41.9590 cc         1 HER       0.147900
      5 C8          14.7180    11.5170    44.1850 ca         1 HER       0.254100
      6 C10         13.6710     9.9230    42.6250 c          1 HER       0.578900
      7 C13         14.9040    11.0360    46.5690 ca         1 HER       0.254100
      8 C15         13.8640     9.4320    45.0870 ca         1 HER       0.283100
      9 C1          15.6780    13.9860    40.7940 ca         1 HER      -0.159500
     10 C11         13.8070    10.9940    41.6220 cd         1 HER      -0.057100
     11 C12         15.1350    11.8850    45.4720 ca         1 HER      -0.299000
     12 C14         14.2670     9.8110    46.3680 ca         1 HER      -0.251000
     13 C16         15.9520    12.5950    48.1680 c3         1 HER       0.145900
     14 C2          15.7800    15.0410    39.8710 ca         1 HER       0.095600
     15 C3          14.6520    15.4390    39.1230 ca         1 HER       0.104100
     16 C9          14.0870    10.2800    43.9920 ca         1 HER      -0.379600
     17 O1          15.0350    12.3940    43.1590 os         1 HER      -0.206200
     18 O2          13.2050     8.8190    42.3560 o          1 HER      -0.615100
     19 O3          13.3190    10.6680    40.3850 oh         1 HER      -0.519100
     20 O4          13.2570     8.2310    44.9160 oh         1 HER      -0.530100
     21 O5          15.2890    11.3590    47.8540 os         1 HER      -0.327100
     22 O6          16.9760    15.6870    39.6960 oh         1 HER      -0.532600
     23 O7          14.7820    16.4720    38.2300 oh         1 HER      -0.509100
     24 O8          12.3030    15.1440    38.6010 oh         1 HER      -0.532600
     25 H1          12.3750    13.2150    40.3890 ha         1 HER       0.131500
     26 H2          16.5500    13.6820    41.3690 ha         1 HER       0.131500
     27 H3          15.6390    12.8370    45.5950 ha         1 HER       0.141000
     28 H4          14.0890     9.1490    47.2100 ha         1 HER       0.153000
     29 H5          16.1650    12.6490    49.2430 h1         1 HER       0.048033
     30 H6          16.9040    12.6760    47.6290 h1         1 HER       0.048033
     31 H7          15.3220    13.4540    47.9030 h1         1 HER       0.048033
     32 H8          12.9940     9.7370    40.4450 ho         1 HER       0.491000
     33 H9          13.0990     8.1590    43.9390 ho         1 HER       0.519000
     34 H10         17.6450    15.2840    40.2920 ho         1 HER       0.471500
     35 H11         15.7190    16.7670    38.2830 ho         1 HER       0.479000
     36 H12         11.5550    14.5640    38.8600 ho         1 HER       0.471500
@<TRIPOS>BOND
     1     1     2 ar  
     2     1    15 ar  
     3     1    24 1   
     4     2     3 ar  
     5     2    25 1   
     6     3     4 1   
     7     3     9 ar  
     8     4    10 2   
     9     4    17 1   
    10     5    11 ar  
    11     5    16 ar  
    12     5    17 1   
    13     6    10 1   
    14     6    16 1   
    15     6    18 2   
    16     7    11 ar  
    17     7    12 ar  
    18     7    21 1   
    19     8    12 ar  
    20     8    16 ar  
    21     8    20 1   
    22     9    14 ar  
    23     9    26 1   
    24    10    19 1   
    25    11    27 1   
    26    12    28 1   
    27    13    21 1   
    28    13    29 1   
    29    13    30 1   
    30    13    31 1   
    31    14    15 ar  
    32    14    22 1   
    33    15    23 1   
    34    19    32 1   
    35    20    33 1   
    36    22    34 1   
    37    23    35 1   
    38    24    36 1   
@<TRIPOS>SUBSTRUCTURE
     1 HER         1 TEMP              0 ****  ****    0 ROOT
