@<TRIPOS>MOLECULE
HET
   64    68     1     0     0
SMALL
abcg2


@<TRIPOS>ATOM
      1 N9A         -2.9140    -1.3250     0.6240 na         1 HET      -0.276300
      2 C8A         -2.4830    -2.6160     0.5290 cc         1 HET       0.411700
      3 N7A         -1.1880    -2.7320     0.4450 nd         1 HET      -0.554100
      4 C5A         -0.7380    -1.4400     0.4780 ca         1 HET      -0.090600
      5 C6A          0.5400    -0.8600     0.4070 ca         1 HET       0.446900
      6 N6A          1.6300    -1.6600     0.2820 nu         1 HET      -0.921900
      7 N1A          0.6370     0.4580     0.4590 nb         1 HET      -0.280000
      8 C2A         -0.4640     1.2140     0.5750 ca         1 HET       0.198300
      9 N3A         -1.7100     0.7770     0.6400 nb         1 HET      -0.205000
     10 C4A         -1.7950    -0.5490     0.5860 ca         1 HET       0.119500
     11 C1A         -4.2860    -0.8610     0.6400 c3         1 HET       0.084600
     12 CT0         -4.7540    -0.4230    -0.7490 c3         1 HET      -0.054100
     13 CT1         -6.1850     0.0330    -0.7080 ca         1 HET      -0.050300
     14 CT2         -6.4990     1.3750    -0.5040 ca         1 HET      -0.139000
     15 CT3         -7.8260     1.7710    -0.4290 ca         1 HET      -0.067000
     16 CT4         -8.8530     0.8460    -0.5500 ca         1 HET      -0.202000
     17 CT5         -8.5440    -0.4980    -0.7500 ca         1 HET       0.141100
     18 CT6         -7.2120    -0.8970    -0.8280 ca         1 HET      -0.146000
     19 OH          -9.4890    -1.4510    -0.8740 oh         1 HET      -0.534100
     20 CR1          2.9710    -1.3510     0.1090 ca         1 HET       0.348000
     21 CR2          3.8390    -2.4310    -0.0930 ca         1 HET      -0.172500
     22 CR3          5.1910    -2.2260    -0.2920 ca         1 HET      -0.011500
     23 CR4          5.7220    -0.9390    -0.2910 ca         1 HET      -0.366500
     24 CR5          4.8580     0.1320    -0.0800 ca         1 HET      -0.011500
     25 CR6          3.5000    -0.0560     0.1180 ca         1 HET      -0.172500
     26 PA           7.4950    -0.7150    -0.5660 py         1 HET       1.202500
     27 OA1          8.1860    -2.0090    -0.9020 o          1 HET      -0.563000
     28 CA2          8.1280     0.0730     0.9360 c3         1 HET      -0.479100
     29 CA3          7.6320     0.5470    -1.8570 c3         1 HET      -0.479100
     30 CS1         -0.2370     2.6960     0.6260 c5         1 HET      -0.110000
     31 CS2          0.7570     3.1310     1.7400 c5         1 HET      -0.068400
     32 CS3          1.9040     3.8530     1.0250 c5         1 HET      -0.078900
     33 CS4          1.2630     4.3950    -0.2480 c5         1 HET      -0.078900
     34 CS5          0.3610     3.2470    -0.6880 c5         1 HET      -0.068400
     35 H8A         -3.1840    -3.4380     0.5320 h5         1 HET       0.068800
     36 H6A          1.4180    -2.6470     0.2650 hn         1 HET       0.520000
     37 H1A1        -4.9080    -1.6730     1.0160 h1         1 HET       0.070700
     38 H1A2        -4.3630    -0.0360     1.3470 h1         1 HET       0.070700
     39 HT01        -4.1110     0.3840    -1.1060 hc         1 HET       0.065200
     40 HT02        -4.6400    -1.2600    -1.4420 hc         1 HET       0.065200
     41 HT2         -5.7080     2.1090    -0.4120 ha         1 HET       0.121000
     42 HT3         -8.0700     2.8140    -0.2760 ha         1 HET       0.115000
     43 HT4         -9.8870     1.1670    -0.4890 ha         1 HET       0.115000
     44 HT6         -6.9810    -1.9440    -0.9900 ha         1 HET       0.125000
     45 HOH        -10.3680    -1.0610    -0.8150 ho         1 HET       0.466000
     46 HR2          3.4470    -3.4410    -0.1010 ha         1 HET       0.136000
     47 HR3          5.8350    -3.0810    -0.4540 ha         1 HET       0.121000
     48 HR5          5.2340     1.1490    -0.0680 ha         1 HET       0.121000
     49 HR6          2.8550     0.7930     0.2710 ha         1 HET       0.136000
     50 HA21         7.5710     0.9770     1.1810 hc         1 HET       0.077700
     51 HA22         8.0480    -0.6220     1.7710 hc         1 HET       0.077700
     52 HA23         9.1770     0.3380     0.7980 hc         1 HET       0.077700
     53 HA31         8.6840     0.7610    -2.0450 hc         1 HET       0.077700
     54 HA32         7.1750     0.1850    -2.7770 hc         1 HET       0.077700
     55 HA33         7.1400     1.4740    -1.5630 hc         1 HET       0.077700
     56 HS1         -1.2070     3.1620     0.8030 hc         1 HET       0.071700
     57 HS21         0.2510     3.8090     2.4280 hc         1 HET       0.049950
     58 HS22         1.1100     2.2850     2.3300 hc         1 HET       0.049950
     59 HS31         2.3630     4.6280     1.6420 hc         1 HET       0.043200
     60 HS32         2.6930     3.1410     0.7650 hc         1 HET       0.043200
     61 HS41         0.6670     5.2830    -0.0190 hc         1 HET       0.043200
     62 HS42         1.9920     4.6770    -1.0110 hc         1 HET       0.043200
     63 HS51         0.9680     2.4780    -1.1730 hc         1 HET       0.049950
     64 HS52        -0.4140     3.5450    -1.3940 hc         1 HET       0.049950
@<TRIPOS>BOND
     1     1     2 1   
     2     1    10 1   
     3     1    11 1   
     4     2     3 2   
     5     2    35 1   
     6     3     4 1   
     7     4     5 ar  
     8     4    10 ar  
     9     5     6 1   
    10     5     7 ar  
    11     6    20 1   
    12     6    36 1   
    13     7     8 ar  
    14     8     9 ar  
    15     8    30 1   
    16     9    10 ar  
    17    11    12 1   
    18    11    37 1   
    19    11    38 1   
    20    12    13 1   
    21    12    39 1   
    22    12    40 1   
    23    13    14 ar  
    24    13    18 ar  
    25    14    15 ar  
    26    14    41 1   
    27    15    16 ar  
    28    15    42 1   
    29    16    17 ar  
    30    16    43 1   
    31    17    18 ar  
    32    17    19 1   
    33    18    44 1   
    34    19    45 1   
    35    20    21 ar  
    36    20    25 ar  
    37    21    22 ar  
    38    21    46 1   
    39    22    23 ar  
    40    22    47 1   
    41    23    24 ar  
    42    23    26 1   
    43    24    25 ar  
    44    24    48 1   
    45    25    49 1   
    46    26    27 2   
    47    26    28 1   
    48    26    29 1   
    49    28    50 1   
    50    28    51 1   
    51    28    52 1   
    52    29    53 1   
    53    29    54 1   
    54    29    55 1   
    55    30    31 1   
    56    30    34 1   
    57    30    56 1   
    58    31    32 1   
    59    31    57 1   
    60    31    58 1   
    61    32    33 1   
    62    32    59 1   
    63    32    60 1   
    64    33    34 1   
    65    33    61 1   
    66    33    62 1   
    67    34    63 1   
    68    34    64 1   
@<TRIPOS>SUBSTRUCTURE
     1 HET         1 TEMP              0 ****  ****    0 ROOT
