@<TRIPOS>MOLECULE
HET
   64    68     1     0     0
SMALL
No Charge or Current Charge


@<TRIPOS>ATOM
      1 N9A         -2.8800    -1.4110     0.5410 na         1 HET      -0.276300
      2 C8A         -2.4130    -2.7250     0.4760 cc         1 HET       0.411700
      3 N7A         -1.0720    -2.7470     0.3420 nd         1 HET      -0.554100
      4 C5A         -0.7250    -1.3880     0.3280 ca         1 HET      -0.090600
      5 C6A          0.5450    -0.7940     0.2070 ca         1 HET       0.446900
      6 N6A          1.6800    -1.5850     0.0580 nu         1 HET      -0.921900
      7 N1A          0.6690     0.5460     0.1870 nb         1 HET      -0.280000
      8 C2A         -0.4610     1.2950     0.3130 ca         1 HET       0.198300
      9 N3A         -1.7090     0.7780     0.4430 nb         1 HET      -0.205000
     10 C4A         -1.8130    -0.5640     0.4460 ca         1 HET       0.119500
     11 C1A         -4.2680    -0.9390     0.6770 c3         1 HET       0.084600
     12 CT0         -4.9040    -0.5540    -0.6730 c3         1 HET      -0.054100
     13 CT1         -6.3300    -0.0520    -0.5040 ca         1 HET      -0.050300
     14 CT2         -6.5740     1.3020    -0.2040 ca         1 HET      -0.139000
     15 CT3         -7.8900     1.7680    -0.0420 ca         1 HET      -0.067000
     16 CT4         -8.9710     0.8800    -0.1770 ca         1 HET      -0.202000
     17 CT5         -8.7330    -0.4710    -0.4730 ca         1 HET       0.141100
     18 CT6         -7.4190    -0.9360    -0.6360 ca         1 HET      -0.146000
     19 OH          -9.7770    -1.3360    -0.6030 oh         1 HET      -0.534100
     20 CR1          3.0520    -1.3370    -0.0210 ca         1 HET       0.348000
     21 CR2          3.8630    -2.2730    -0.6800 ca         1 HET      -0.172500
     22 CR3          5.2500    -2.0740    -0.7820 ca         1 HET      -0.011500
     23 CR4          5.8420    -0.9310    -0.2110 ca         1 HET      -0.366500
     24 CR5          5.0330     0.0030     0.4670 ca         1 HET      -0.011500
     25 CR6          3.6480    -0.2050     0.5630 ca         1 HET      -0.172500
     26 PA           7.6500    -0.6750    -0.3480 py         1 HET       1.202500
     27 OA1          8.3830    -1.7380    -1.0910 o          1 HET      -0.563000
     28 CA2          8.2450    -0.4350     1.3630 c3         1 HET      -0.479100
     29 CA3          7.8580     0.9930    -1.0650 c3         1 HET      -0.479100
     30 CS1         -0.3490     2.8280     0.2990 c5         1 HET      -0.110000
     31 CS2          0.7870     3.2890     1.2840 c5         1 HET      -0.068400
     32 CS3          1.9480     3.7090     0.3440 c5         1 HET      -0.078900
     33 CS4          1.1630     4.3840    -0.8060 c5         1 HET      -0.078900
     34 CS5          0.1300     3.2750    -1.1260 c5         1 HET      -0.068400
     35 H8A         -3.0720    -3.5840     0.5270 h5         1 HET       0.068800
     36 H6A          1.4220    -2.5600    -0.0910 hn         1 HET       0.520000
     37 H1A1        -4.8660    -1.7310     1.1470 h1         1 HET       0.070700
     38 H1A2        -4.2840    -0.0700     1.3480 h1         1 HET       0.070700
     39 HT01        -4.2900     0.2170    -1.1540 hc         1 HET       0.065200
     40 HT02        -4.8820    -1.4240    -1.3410 hc         1 HET       0.065200
     41 HT2         -5.7420     1.9960    -0.0960 ha         1 HET       0.121000
     42 HT3         -8.0710     2.8160     0.1900 ha         1 HET       0.115000
     43 HT4         -9.9860     1.2480    -0.0490 ha         1 HET       0.115000
     44 HT6         -7.2460    -1.9850    -0.8630 ha         1 HET       0.125000
     45 HOH        -10.6100    -0.8380    -0.4580 ho         1 HET       0.466000
     46 HR2          3.4180    -3.1570    -1.1270 ha         1 HET       0.136000
     47 HR3          5.8580    -2.8110    -1.3060 ha         1 HET       0.121000
     48 HR5          5.4700     0.8890     0.9260 ha         1 HET       0.121000
     49 HR6          3.0490     0.5130     1.1110 ha         1 HET       0.136000
     50 HA21         7.7640     0.4390     1.8130 hc         1 HET       0.077700
     51 HA22         8.0060    -1.3260     1.9530 hc         1 HET       0.077700
     52 HA23         9.3300    -0.2870     1.3500 hc         1 HET       0.077700
     53 HA31         8.9260     1.2060    -1.1800 hc         1 HET       0.077700
     54 HA32         7.3730     1.0240    -2.0460 hc         1 HET       0.077700
     55 HA33         7.4060     1.7460    -0.4110 hc         1 HET       0.077700
     56 HS1         -1.2980     3.3090     0.5650 hc         1 HET       0.071700
     57 HS21         0.4490     4.1480     1.8760 hc         1 HET       0.049950
     58 HS22         1.0880     2.5210     2.0070 hc         1 HET       0.049950
     59 HS31         2.6510     4.3940     0.8310 hc         1 HET       0.043200
     60 HS32         2.5240     2.8450    -0.0090 hc         1 HET       0.043200
     61 HS41         0.6800     5.3140    -0.4830 hc         1 HET       0.043200
     62 HS42         1.7990     4.6220    -1.6660 hc         1 HET       0.043200
     63 HS51         0.6020     2.4640    -1.6930 hc         1 HET       0.049950
     64 HS52        -0.6980     3.6460    -1.7410 hc         1 HET       0.049950
@<TRIPOS>BOND
     1     1     2 1   
     2     1    10 1   
     3     1    11 1   
     4     2     3 2   
     5     2    35 1   
     6     3     4 1   
     7     4     5 ar  
     8     4    10 ar  
     9     5     6 1   
    10     5     7 ar  
    11     6    20 1   
    12     6    36 1   
    13     7     8 ar  
    14     8     9 ar  
    15     8    30 1   
    16     9    10 ar  
    17    11    12 1   
    18    11    37 1   
    19    11    38 1   
    20    12    13 1   
    21    12    39 1   
    22    12    40 1   
    23    13    14 ar  
    24    13    18 ar  
    25    14    15 ar  
    26    14    41 1   
    27    15    16 ar  
    28    15    42 1   
    29    16    17 ar  
    30    16    43 1   
    31    17    18 ar  
    32    17    19 1   
    33    18    44 1   
    34    19    45 1   
    35    20    21 ar  
    36    20    25 ar  
    37    21    22 ar  
    38    21    46 1   
    39    22    23 ar  
    40    22    47 1   
    41    23    24 ar  
    42    23    26 1   
    43    24    25 ar  
    44    24    48 1   
    45    25    49 1   
    46    26    27 2   
    47    26    28 1   
    48    26    29 1   
    49    28    50 1   
    50    28    51 1   
    51    28    52 1   
    52    29    53 1   
    53    29    54 1   
    54    29    55 1   
    55    30    31 1   
    56    30    34 1   
    57    30    56 1   
    58    31    32 1   
    59    31    57 1   
    60    31    58 1   
    61    32    33 1   
    62    32    59 1   
    63    32    60 1   
    64    33    34 1   
    65    33    61 1   
    66    33    62 1   
    67    34    63 1   
    68    34    64 1   
@<TRIPOS>SUBSTRUCTURE
     1 HET         1 TEMP              0 ****  ****    0 ROOT
