@<TRIPOS>MOLECULE
HEW
   13    13     1     0     0
SMALL
No Charge or Current Charge


@<TRIPOS>ATOM
      1 C4           0.3830     1.4940    -0.0360 ca         1 HEW      -0.203000
      2 C5           1.7700     1.7120     0.0160 ca         1 HEW       0.389900
      3 N1           3.1710    -1.4290     0.1900 nv         1 HEW      -1.065900
      4 N2           2.6710     0.7040     0.0930 nb         1 HEW      -0.740000
      5 C3          -0.0980     0.1780    -0.0070 ca         1 HEW       0.060100
      6 C1           2.1870    -0.5300     0.1210 ca         1 HEW       0.609900
      7 C2           0.8330    -0.8650     0.0720 ca         1 HEW      -0.215000
      8 Br1         -1.9740    -0.1840    -0.0760 br         1 HEW      -0.091100
      9 H1          -0.2990     2.3370    -0.0970 ha         1 HEW       0.140000
     10 H2           2.1740     2.7240    -0.0050 h4         1 HEW       0.019100
     11 H3           4.0910    -1.0630    -0.0220 hn         1 HEW       0.481000
     12 H4           2.9740    -2.3690    -0.1370 hn         1 HEW       0.481000
     13 H5           0.5130    -1.9020     0.0980 ha         1 HEW       0.135000
@<TRIPOS>BOND
     1     1     2 ar  
     2     1     5 ar  
     3     1     9 1   
     4     2     4 ar  
     5     2    10 1   
     6     3     6 1   
     7     3    11 1   
     8     3    12 1   
     9     4     6 ar  
    10     5     7 ar  
    11     5     8 1   
    12     6     7 ar  
    13     7    13 1   
@<TRIPOS>SUBSTRUCTURE
     1 HEW         1 TEMP              0 ****  ****    0 ROOT
