@<TRIPOS>MOLECULE
HEW
   13    13     1     0     0
SMALL
abcg2


@<TRIPOS>ATOM
      1 C4           0.3610     1.5190    -0.0230 ca         1 HEW      -0.203000
      2 C5           1.7270     1.7300     0.0140 ca         1 HEW       0.389900
      3 N1           3.1690    -1.4640     0.1800 nv         1 HEW      -1.065900
      4 N2           2.6400     0.7680     0.0640 nb         1 HEW      -0.740000
      5 C3          -0.0540     0.1910    -0.0090 ca         1 HEW       0.060100
      6 C1           2.2230    -0.4970     0.0820 ca         1 HEW       0.609900
      7 C2           0.8560    -0.8380     0.0440 ca         1 HEW      -0.215000
      8 BR1         -1.8960    -0.2040    -0.0630 br         1 HEW      -0.091100
      9 H1          -0.3300     2.3480    -0.0650 ha         1 HEW       0.140000
     10 H2           2.1060     2.7460     0.0010 h4         1 HEW       0.019100
     11 H3           4.1200    -1.2030    -0.0200 hn         1 HEW       0.481000
     12 H4           2.9230    -2.4110    -0.0500 hn         1 HEW       0.481000
     13 H5           0.5500    -1.8760     0.0550 ha         1 HEW       0.135000
@<TRIPOS>BOND
     1     1     2 ar  
     2     1     5 ar  
     3     1     9 1   
     4     2     4 ar  
     5     2    10 1   
     6     3     6 1   
     7     3    11 1   
     8     3    12 1   
     9     4     6 ar  
    10     5     7 ar  
    11     5     8 1   
    12     6     7 ar  
    13     7    13 1   
@<TRIPOS>SUBSTRUCTURE
     1 HEW         1 TEMP              0 ****  ****    0 ROOT
