@<TRIPOS>MOLECULE
HEX
   20    19     1     0     0
SMALL
bcc


@<TRIPOS>ATOM
      1 C1          -0.2520     0.0090     3.1960 c3         1 HEX      -0.088100
      2 C2           0.5270     0.0110     1.8880 c3         1 HEX      -0.075400
      3 C3          -0.3780    -0.0070     0.6620 c3         1 HEX      -0.076400
      4 C4           0.3890    -0.0070    -0.6550 c3         1 HEX      -0.076400
      5 C5          -0.5160    -0.0240    -1.8810 c3         1 HEX      -0.075400
      6 C6           0.2630    -0.0260    -3.1890 c3         1 HEX      -0.088100
      7 H11         -0.8820    -0.8790     3.2760 hc         1 HEX       0.031367
      8 H12          0.4100     0.0230     4.0620 hc         1 HEX       0.031367
      9 H13         -0.9050     0.8820     3.2660 hc         1 HEX       0.031367
     10 H21          1.1740     0.8930     1.8470 hc         1 HEX       0.036700
     11 H22          1.1950    -0.8550     1.8570 hc         1 HEX       0.036700
     12 H31         -1.0270    -0.8890     0.7050 hc         1 HEX       0.036700
     13 H32         -1.0460     0.8610     0.6930 hc         1 HEX       0.036700
     14 H41          1.0390     0.8740    -0.6980 hc         1 HEX       0.036700
     15 H42          1.0560    -0.8760    -0.6870 hc         1 HEX       0.036700
     16 H51         -1.1650    -0.9040    -1.8380 hc         1 HEX       0.036700
     17 H52         -1.1820     0.8440    -1.8510 hc         1 HEX       0.036700
     18 H61         -0.3990    -0.0380    -4.0550 hc         1 HEX       0.031367
     19 H62          0.8960     0.8600    -3.2690 hc         1 HEX       0.031367
     20 H63          0.9130    -0.9010    -3.2570 hc         1 HEX       0.031367
@<TRIPOS>BOND
     1     1     2 1   
     2     1     7 1   
     3     1     8 1   
     4     1     9 1   
     5     2     3 1   
     6     2    10 1   
     7     2    11 1   
     8     3     4 1   
     9     3    12 1   
    10     3    13 1   
    11     4     5 1   
    12     4    14 1   
    13     4    15 1   
    14     5     6 1   
    15     5    16 1   
    16     5    17 1   
    17     6    18 1   
    18     6    19 1   
    19     6    20 1   
@<TRIPOS>SUBSTRUCTURE
     1 HEX         1 TEMP              0 ****  ****    0 ROOT
