@<TRIPOS>MOLECULE
HEX
   20    19     1     0     0
SMALL
No Charge or Current Charge


@<TRIPOS>ATOM
      1 C1          -0.2590     0.0100     3.2380 c3         1 HEX      -0.088100
      2 C2           0.5260     0.0100     1.9120 c3         1 HEX      -0.075400
      3 C3          -0.3880    -0.0070     0.6680 c3         1 HEX      -0.076400
      4 C4           0.3990    -0.0070    -0.6610 c3         1 HEX      -0.076400
      5 C5          -0.5150    -0.0250    -1.9050 c3         1 HEX      -0.075400
      6 C6           0.2700    -0.0250    -3.2310 c3         1 HEX      -0.088100
      7 H11         -0.8860    -0.8860     3.3180 hc         1 HEX       0.031367
      8 H12          0.4310     0.0230     4.0910 hc         1 HEX       0.031367
      9 H13         -0.9050     0.8940     3.3070 hc         1 HEX       0.031367
     10 H21          1.1690     0.8990     1.8790 hc         1 HEX       0.036700
     11 H22          1.1880    -0.8640     1.8900 hc         1 HEX       0.036700
     12 H31         -1.0310    -0.8960     0.7060 hc         1 HEX       0.036700
     13 H32         -1.0500     0.8680     0.6950 hc         1 HEX       0.036700
     14 H41          1.0420     0.8810    -0.6990 hc         1 HEX       0.036700
     15 H42          1.0610    -0.8820    -0.6880 hc         1 HEX       0.036700
     16 H51         -1.1580    -0.9140    -1.8720 hc         1 HEX       0.036700
     17 H52         -1.1770     0.8500    -1.8830 hc         1 HEX       0.036700
     18 H61         -0.4200    -0.0380    -4.0840 hc         1 HEX       0.031367
     19 H62          0.8970     0.8710    -3.3110 hc         1 HEX       0.031367
     20 H63          0.9160    -0.9090    -3.2990 hc         1 HEX       0.031367
@<TRIPOS>BOND
     1     1     2 1   
     2     1     7 1   
     3     1     8 1   
     4     1     9 1   
     5     2     3 1   
     6     2    10 1   
     7     2    11 1   
     8     3     4 1   
     9     3    12 1   
    10     3    13 1   
    11     4     5 1   
    12     4    14 1   
    13     4    15 1   
    14     5     6 1   
    15     5    16 1   
    16     5    17 1   
    17     6    18 1   
    18     6    19 1   
    19     6    20 1   
@<TRIPOS>SUBSTRUCTURE
     1 HEX         1 TEMP              0 ****  ****    0 ROOT
