@<TRIPOS>MOLECULE
HEZ
   22    21     1     0     0
SMALL
abcg2


@<TRIPOS>ATOM
      1 O1          -0.3020    -0.0140     4.2980 oh         1 HEZ      -0.663000
      2 C1           0.5140    -0.0270     3.1450 c3         1 HEZ       0.164100
      3 C2          -0.3670    -0.0250     1.9110 c3         1 HEZ      -0.082400
      4 C3           0.4510    -0.0350     0.6260 c3         1 HEZ      -0.074400
      5 C4          -0.4150    -0.0330    -0.6270 c3         1 HEZ      -0.074400
      6 C5           0.4030    -0.0390    -1.9120 c3         1 HEZ      -0.082400
      7 C6          -0.4770    -0.0370    -3.1460 c3         1 HEZ       0.164100
      8 O6           0.3390    -0.0440    -4.2990 oh         1 HEZ      -0.663000
      9 HO1          0.2690    -0.0230     5.0710 ho         1 HEZ       0.442000
     10 H11          1.1770     0.8490     3.1150 h1         1 HEZ       0.015700
     11 H12          1.1630    -0.9130     3.1240 h1         1 HEZ       0.015700
     12 H21         -1.0250    -0.9000     1.9330 hc         1 HEZ       0.051700
     13 H22         -1.0130     0.8580     1.9270 hc         1 HEZ       0.051700
     14 H31          1.1160     0.8350     0.6080 hc         1 HEZ       0.038700
     15 H32          1.1030    -0.9160     0.6130 hc         1 HEZ       0.038700
     16 H41         -1.0770    -0.9050    -0.6100 hc         1 HEZ       0.038700
     17 H42         -1.0690     0.8460    -0.6130 hc         1 HEZ       0.038700
     18 H51          1.0600     0.8370    -1.9330 hc         1 HEZ       0.051700
     19 H52          1.0520    -0.9210    -1.9290 hc         1 HEZ       0.051700
     20 H61         -1.1370    -0.9150    -3.1190 h1         1 HEZ       0.015700
     21 H62         -1.1290     0.8470    -3.1230 h1         1 HEZ       0.015700
     22 HO6         -0.2320    -0.0450    -5.0720 ho         1 HEZ       0.442000
@<TRIPOS>BOND
     1     1     2 1   
     2     1     9 1   
     3     2     3 1   
     4     2    10 1   
     5     2    11 1   
     6     3     4 1   
     7     3    12 1   
     8     3    13 1   
     9     4     5 1   
    10     4    14 1   
    11     4    15 1   
    12     5     6 1   
    13     5    16 1   
    14     5    17 1   
    15     6     7 1   
    16     6    18 1   
    17     6    19 1   
    18     7     8 1   
    19     7    20 1   
    20     7    21 1   
    21     8    22 1   
@<TRIPOS>SUBSTRUCTURE
     1 HEZ         1 TEMP              0 ****  ****    0 ROOT
