@<TRIPOS>MOLECULE
HEZ
   22    21     1     0     0
SMALL
No Charge or Current Charge


@<TRIPOS>ATOM
      1 O1          -0.3070    -0.0190     4.3740 oh         1 HEZ      -0.663000
      2 C1           0.5210    -0.0270     3.2060 c3         1 HEZ       0.164100
      3 C2          -0.3620    -0.0250     1.9420 c3         1 HEZ      -0.082400
      4 C3           0.4590    -0.0340     0.6340 c3         1 HEZ      -0.074400
      5 C4          -0.4230    -0.0320    -0.6350 c3         1 HEZ      -0.074400
      6 C5           0.3990    -0.0400    -1.9430 c3         1 HEZ      -0.082400
      7 C6          -0.4840    -0.0380    -3.2070 c3         1 HEZ       0.164100
      8 O6           0.3430    -0.0460    -4.3750 oh         1 HEZ      -0.663000
      9 HO1          0.2970    -0.0210     5.1500 ho         1 HEZ       0.442000
     10 H11          1.1720     0.8570     3.1960 h1         1 HEZ       0.015700
     11 H12          1.1610    -0.9200     3.2000 h1         1 HEZ       0.015700
     12 H21         -1.0190    -0.9040     1.9620 hc         1 HEZ       0.051700
     13 H22         -1.0080     0.8610     1.9570 hc         1 HEZ       0.051700
     14 H31          1.1180     0.8440     0.6160 hc         1 HEZ       0.038700
     15 H32          1.1070    -0.9200     0.6210 hc         1 HEZ       0.038700
     16 H41         -1.0810    -0.9100    -0.6170 hc         1 HEZ       0.038700
     17 H42         -1.0700     0.8540    -0.6220 hc         1 HEZ       0.038700
     18 H51          1.0560     0.8380    -1.9630 hc         1 HEZ       0.051700
     19 H52          1.0450    -0.9260    -1.9580 hc         1 HEZ       0.051700
     20 H61         -1.1350    -0.9220    -3.1970 h1         1 HEZ       0.015700
     21 H62         -1.1240     0.8540    -3.2010 h1         1 HEZ       0.015700
     22 HO6         -0.2600    -0.0440    -5.1510 ho         1 HEZ       0.442000
@<TRIPOS>BOND
     1     1     2 1   
     2     1     9 1   
     3     2     3 1   
     4     2    10 1   
     5     2    11 1   
     6     3     4 1   
     7     3    12 1   
     8     3    13 1   
     9     4     5 1   
    10     4    14 1   
    11     4    15 1   
    12     5     6 1   
    13     5    16 1   
    14     5    17 1   
    15     6     7 1   
    16     6    18 1   
    17     6    19 1   
    18     7     8 1   
    19     7    20 1   
    20     7    21 1   
    21     8    22 1   
@<TRIPOS>SUBSTRUCTURE
     1 HEZ         1 TEMP              0 ****  ****    0 ROOT
