@<TRIPOS>MOLECULE
HF0
   38    40     1     0     0
SMALL
No Charge or Current Charge


@<TRIPOS>ATOM
      1 C4         -24.4060    20.6420   -16.6510 ca         1 HF0      -0.300000
      2 C5         -25.0510    19.6390   -15.9230 ca         1 HF0       0.268100
      3 C6         -25.6560    18.5530   -16.5750 ca         1 HF0      -0.418600
      4 C7         -25.2200    18.5610   -13.7650 c6         1 HF0       0.228600
      5 C8         -26.4370    17.7230   -14.2240 c6         1 HF0       0.058300
      6 C10        -25.2940    18.9700   -12.2870 ca         1 HF0      -0.008300
      7 C13        -25.4260    19.7200    -9.5570 ca         1 HF0      -0.099900
      8 C15        -26.2930    19.8580   -11.8350 ca         1 HF0      -0.151500
      9 C1         -25.5790    18.4790   -17.9760 ca         1 HF0       0.289100
     10 C11        -24.3510    18.4750   -11.3650 ca         1 HF0      -0.151500
     11 C12        -24.4210    18.8480   -10.0150 ca         1 HF0       0.168600
     12 C14        -26.3560    20.2380   -10.4860 ca         1 HF0       0.168600
     13 C16        -23.0680    22.6650   -18.2480 c3         1 HF0       0.145900
     14 C2         -24.9170    19.4690   -18.7040 ca         1 HF0      -0.258000
     15 C3         -24.3320    20.5560   -18.0520 ca         1 HF0       0.256100
     16 C9         -26.4050    17.5400   -15.7630 c          1 HF0       0.574700
     17 O1         -25.0910    19.7550   -14.5580 os         1 HF0      -0.333100
     18 O2         -27.0220    16.6270   -16.3050 o          1 HF0      -0.580100
     19 O3         -26.1570    17.4520   -18.6450 oh         1 HF0      -0.531100
     20 O4         -23.7000    21.5080   -18.8240 os         1 HF0      -0.329100
     21 O5         -26.5040    16.4430   -13.5330 oh         1 HF0      -0.636000
     22 O6         -27.3050    21.1370   -10.0920 oh         1 HF0      -0.526100
     23 O7         -25.4890    20.0350    -8.2150 oh         1 HF0      -0.564100
     24 O8         -23.5200    18.3630    -9.1200 oh         1 HF0      -0.526100
     25 H1         -23.9610    21.4690   -16.1090 ha         1 HF0       0.142000
     26 H2         -24.3120    17.9610   -13.9230 h1         1 HF0       0.074700
     27 H3         -27.3460    18.3080   -14.0250 h1         1 HF0       0.070700
     28 H4         -27.0140    20.2690   -12.5380 ha         1 HF0       0.138000
     29 H5         -23.5690    17.7940   -11.6910 ha         1 HF0       0.138000
     30 H6         -22.6290    23.2890   -19.0360 h1         1 HF0       0.048700
     31 H7         -23.7950    23.2740   -17.6980 h1         1 HF0       0.048700
     32 H8         -22.2640    22.3690   -17.5620 h1         1 HF0       0.048700
     33 H9         -24.8660    19.3990   -19.7860 ha         1 HF0       0.151000
     34 H10        -26.6050    16.9070   -17.9510 ho         1 HF0       0.515000
     35 H11        -27.1010    15.8640   -14.0640 ho         1 HF0       0.472000
     36 H12        -26.9640    21.6060    -9.3010 ho         1 HF0       0.478000
     37 H13        -26.4270    20.0320    -7.9150 ho         1 HF0       0.453000
     38 H14        -23.7710    18.7700    -8.2610 ho         1 HF0       0.478000
@<TRIPOS>BOND
     1     1     2 ar  
     2     1    15 ar  
     3     1    25 1   
     4     2     3 ar  
     5     2    17 1   
     6     3     9 ar  
     7     3    16 1   
     8     4     5 1   
     9     4     6 1   
    10     4    17 1   
    11     4    26 1   
    12     5    16 1   
    13     5    21 1   
    14     5    27 1   
    15     6     8 ar  
    16     6    10 ar  
    17     7    11 ar  
    18     7    12 ar  
    19     7    23 1   
    20     8    12 ar  
    21     8    28 1   
    22     9    14 ar  
    23     9    19 1   
    24    10    11 ar  
    25    10    29 1   
    26    11    24 1   
    27    12    22 1   
    28    13    20 1   
    29    13    30 1   
    30    13    31 1   
    31    13    32 1   
    32    14    15 ar  
    33    14    33 1   
    34    15    20 1   
    35    16    18 2   
    36    19    34 1   
    37    21    35 1   
    38    22    36 1   
    39    23    37 1   
    40    24    38 1   
@<TRIPOS>SUBSTRUCTURE
     1 HF0         1 TEMP              0 ****  ****    0 ROOT
