@<TRIPOS>MOLECULE
HF0
   38    40     1     0     0
SMALL
bcc


@<TRIPOS>ATOM
      1 C4         -24.3750    20.6480   -16.6050 ca         1 HF0      -0.318000
      2 C5         -24.9850    19.6420   -15.8780 ca         1 HF0       0.268100
      3 C6         -25.5890    18.5400   -16.5060 ca         1 HF0      -0.418600
      4 C7         -25.1870    18.5930   -13.7630 c6         1 HF0       0.205400
      5 C8         -26.4420    17.8700   -14.2460 c6         1 HF0       0.035100
      6 C10        -25.2800    19.0110   -12.3230 ca         1 HF0      -0.008300
      7 C13        -25.4650    19.7410    -9.6560 ca         1 HF0      -0.099900
      8 C15        -26.2300    19.9480   -11.9340 ca         1 HF0      -0.169500
      9 C1         -25.5380    18.4560   -17.9210 ca         1 HF0       0.289100
     10 C11        -24.4130    18.4510   -11.3980 ca         1 HF0      -0.169500
     11 C12        -24.5040    18.8170   -10.0570 ca         1 HF0       0.168600
     12 C14        -26.3220    20.3130   -10.5980 ca         1 HF0       0.168600
     13 C16        -23.1840    22.5990   -18.2120 c3         1 HF0       0.122700
     14 C2         -24.9340    19.4560   -18.6570 ca         1 HF0      -0.276000
     15 C3         -24.3650    20.5500   -17.9990 ca         1 HF0       0.256100
     16 C9         -26.2930    17.5620   -15.7230 c          1 HF0       0.574700
     17 O1         -24.9810    19.7690   -14.5430 os         1 HF0      -0.309900
     18 O2         -26.8030    16.5480   -16.1940 o          1 HF0      -0.580100
     19 O3         -26.0830    17.4280   -18.5630 oh         1 HF0      -0.492100
     20 O4         -23.8100    21.4670   -18.7910 os         1 HF0      -0.305900
     21 O5         -26.6160    16.7270   -13.4750 oh         1 HF0      -0.573800
     22 O6         -27.2410    21.2220   -10.2330 oh         1 HF0      -0.487100
     23 O7         -25.5330    20.1370    -8.3430 oh         1 HF0      -0.525100
     24 O8         -23.6480    18.2700    -9.1780 oh         1 HF0      -0.487100
     25 H1         -23.9160    21.4730   -16.0790 ha         1 HF0       0.160000
     26 H2         -24.3280    17.9230   -13.8980 h1         1 HF0       0.074700
     27 H3         -27.3000    18.5620   -14.1670 h1         1 HF0       0.070700
     28 H4         -26.9020    20.4030   -12.6510 ha         1 HF0       0.156000
     29 H5         -23.6620    17.7340   -11.7050 ha         1 HF0       0.156000
     30 H6         -22.8020    23.1910   -19.0400 h1         1 HF0       0.048700
     31 H7         -23.8900    23.2040   -17.6400 h1         1 HF0       0.048700
     32 H8         -22.3500    22.3140   -17.5670 h1         1 HF0       0.048700
     33 H9         -24.9010    19.3950   -19.7370 ha         1 HF0       0.169000
     34 H10        -26.4660    16.8140   -17.9010 ho         1 HF0       0.476000
     35 H11        -27.2130    16.1290   -13.9410 ho         1 HF0       0.433000
     36 H12        -27.1460    21.4310    -9.2950 ho         1 HF0       0.439000
     37 H13        -26.1500    19.5730    -7.8580 ho         1 HF0       0.414000
     38 H14        -23.7800    18.6560    -8.3030 ho         1 HF0       0.439000
@<TRIPOS>BOND
     1     1     2 ar  
     2     1    15 ar  
     3     1    25 1   
     4     2     3 ar  
     5     2    17 1   
     6     3     9 ar  
     7     3    16 1   
     8     4     5 1   
     9     4     6 1   
    10     4    17 1   
    11     4    26 1   
    12     5    16 1   
    13     5    21 1   
    14     5    27 1   
    15     6     8 ar  
    16     6    10 ar  
    17     7    11 ar  
    18     7    12 ar  
    19     7    23 1   
    20     8    12 ar  
    21     8    28 1   
    22     9    14 ar  
    23     9    19 1   
    24    10    11 ar  
    25    10    29 1   
    26    11    24 1   
    27    12    22 1   
    28    13    20 1   
    29    13    30 1   
    30    13    31 1   
    31    13    32 1   
    32    14    15 ar  
    33    14    33 1   
    34    15    20 1   
    35    16    18 2   
    36    19    34 1   
    37    21    35 1   
    38    22    36 1   
    39    23    37 1   
    40    24    38 1   
@<TRIPOS>SUBSTRUCTURE
     1 HF0         1 TEMP              0 ****  ****    0 ROOT
