@<TRIPOS>MOLECULE
HF1
   27    27     1     0     0
SMALL
No Charge or Current Charge


@<TRIPOS>ATOM
      1 P1          -0.1510     0.2250    -5.0110 p5         1 HF1       1.138100
      2 O3          -0.8760    -1.0730    -5.1160 o          1 HF1      -0.930167
      3 O1          -1.0310     1.4240    -5.1040 o          1 HF1      -0.930167
      4 O2           0.8980     0.4190    -6.0520 o          1 HF1      -0.930167
      5 C2           0.7680    -0.5480    -2.3530 c2         1 HF1      -0.325200
      6 C3           0.5620    -0.3350     0.1740 c3         1 HF1       0.111600
      7 C9          -1.0830    -0.2080     2.8360 ca         1 HF1      -0.064000
      8 C8           0.3070    -0.1120     3.0770 ca         1 HF1      -0.164000
      9 C7           0.7600     0.0070     4.4060 ca         1 HF1       0.166100
     10 OH           2.0950     0.1000     4.6420 oh         1 HF1      -0.541100
     11 C6          -0.1450     0.0290     5.4790 ca         1 HF1      -0.147000
     12 C5          -1.5250    -0.0680     5.2330 ca         1 HF1      -0.111000
     13 C10         -1.9870    -0.1850     3.9120 ca         1 HF1       0.105000
     14 F           -3.3140    -0.2780     3.6740 f          1 HF1      -0.193000
     15 S1           1.5240    -0.1340     1.7460 ss         1 HF1      -0.323000
     16 C4           1.5100    -0.3780    -1.0410 c3         1 HF1      -0.021200
     17 C1           0.7320     0.3540    -3.3560 c2         1 HF1      -0.182600
     18 H2           0.2370    -1.4960    -2.4580 ha         1 HF1       0.180000
     19 H31         -0.0160    -1.2670     0.2210 h1         1 HF1       0.066700
     20 H32         -0.1330     0.5080     0.0640 h1         1 HF1       0.066700
     21 HO7          2.5220     0.0640     3.7580 ho         1 HF1       0.497000
     22 H6           0.2220     0.1210     6.4980 ha         1 HF1       0.119000
     23 H5          -2.2330    -0.0510     6.0580 ha         1 HF1       0.116000
     24 H41          2.1040     0.5440    -1.0570 hc         1 HF1       0.019700
     25 H42          2.2200    -1.2040    -0.9110 hc         1 HF1       0.019700
     26 H1           1.2560     1.3030    -3.2750 ha         1 HF1       0.112000
     27 H9          -1.4810    -0.2990     1.8310 ha         1 HF1       0.146000
@<TRIPOS>BOND
     1     1     2 1   
     2     1     3 1   
     3     1     4 1   
     4     1    17 1   
     5     5    16 1   
     6     5    17 2   
     7     5    18 1   
     8     6    15 1   
     9     6    16 1   
    10     6    19 1   
    11     6    20 1   
    12     7     8 ar  
    13     7    13 ar  
    14     7    27 1   
    15     8     9 ar  
    16     8    15 1   
    17     9    10 1   
    18     9    11 ar  
    19    10    21 1   
    20    11    12 ar  
    21    11    22 1   
    22    12    13 ar  
    23    12    23 1   
    24    13    14 1   
    25    16    24 1   
    26    16    25 1   
    27    17    26 1   
@<TRIPOS>SUBSTRUCTURE
     1 HF1         1 TEMP              0 ****  ****    0 ROOT
