@<TRIPOS>MOLECULE
HF1
   27    27     1     0     0
SMALL
abcg2


@<TRIPOS>ATOM
      1 P1          -0.0440    -0.8640    -4.6680 p5         1 HF1       1.138100
      2 O3           0.2250    -2.3320    -4.3250 o          1 HF1      -0.930167
      3 O1          -1.5330    -0.5020    -4.7500 o          1 HF1      -0.930167
      4 O2           0.7750    -0.3360    -5.8520 o          1 HF1      -0.930167
      5 C2           1.1010    -0.3910    -2.1160 c2         1 HF1      -0.325200
      6 C3           0.6860     0.1230     0.2780 c3         1 HF1       0.111600
      7 C9          -1.0320     1.1900     3.1750 ca         1 HF1      -0.064000
      8 C8           0.1720     0.5210     2.9700 ca         1 HF1      -0.164000
      9 C7           0.5100    -0.5820     3.7640 ca         1 HF1       0.166100
     10 OH           1.6590    -1.2550     3.6060 oh         1 HF1      -0.541100
     11 C6          -0.3780    -1.0060     4.7510 ca         1 HF1      -0.147000
     12 C5          -1.5790    -0.3480     4.9490 ca         1 HF1      -0.111000
     13 C10         -1.8880     0.7430     4.1570 ca         1 HF1       0.105000
     14 F           -3.0530     1.3880     4.3550 f          1 HF1      -0.193000
     15 S1           1.3050     1.0610     1.7240 ss         1 HF1      -0.323000
     16 C4           1.5660     0.4070    -0.9340 c3         1 HF1      -0.021200
     17 C1           0.5660     0.1100    -3.2280 c2         1 HF1      -0.182600
     18 H2           1.2010    -1.4710    -2.0250 ha         1 HF1       0.180000
     19 H31          0.6920    -0.9400     0.5220 h1         1 HF1       0.066700
     20 H32         -0.3430     0.4280     0.0870 h1         1 HF1       0.066700
     21 HO7          2.1950    -0.8100     2.9300 ho         1 HF1       0.497000
     22 H6          -0.1230    -1.8600     5.3660 ha         1 HF1       0.119000
     23 H5          -2.2650    -0.6850     5.7150 ha         1 HF1       0.116000
     24 H41          1.5420     1.4760    -1.1650 hc         1 HF1       0.019700
     25 H42          2.6030     0.1530    -0.6900 hc         1 HF1       0.019700
     26 H1           0.4720     1.1960    -3.2890 ha         1 HF1       0.112000
     27 H9          -1.2890     2.0490     2.5680 ha         1 HF1       0.146000
@<TRIPOS>BOND
     1     1     2 1   
     2     1     3 1   
     3     1     4 1   
     4     1    17 1   
     5     5    16 1   
     6     5    17 2   
     7     5    18 1   
     8     6    15 1   
     9     6    16 1   
    10     6    19 1   
    11     6    20 1   
    12     7     8 ar  
    13     7    13 ar  
    14     7    27 1   
    15     8     9 ar  
    16     8    15 1   
    17     9    10 1   
    18     9    11 ar  
    19    10    21 1   
    20    11    12 ar  
    21    11    22 1   
    22    12    13 ar  
    23    12    23 1   
    24    13    14 1   
    25    16    24 1   
    26    16    25 1   
    27    17    26 1   
@<TRIPOS>SUBSTRUCTURE
     1 HF1         1 TEMP              0 ****  ****    0 ROOT
