@<TRIPOS>MOLECULE
HF2
   21    21     1     0     0
SMALL
No Charge or Current Charge


@<TRIPOS>ATOM
      1 C           -2.8230     0.2440     0.0580 c          1 HF2       0.691000
      2 O           -3.5550    -0.7290     0.1950 o          1 HF2      -0.720500
      3 CA          -1.3330    -0.0210    -0.3700 c3         1 HF2       0.024300
      4 OA          -1.1630    -1.3490    -0.9340 oh         1 HF2      -0.706000
      5 CB          -0.3710     0.1650     0.8320 c3         1 HF2      -0.043100
      6 CG           1.1050     0.1240     0.4440 ca         1 HF2      -0.032300
      7 CZ           3.8380     0.0690    -0.2570 ca         1 HF2      -0.140000
      8 CD1          1.6780     1.1920    -0.2750 ca         1 HF2      -0.107000
      9 CD2          1.9130    -0.9700     0.8120 ca         1 HF2      -0.107000
     10 CE1          3.0390     1.1650    -0.6260 ca         1 HF2      -0.122000
     11 CE2          3.2750    -0.9980     0.4620 ca         1 HF2      -0.122000
     12 O3          -3.2190     1.4000     0.1240 o          1 HF2      -0.720500
     13 HA          -1.0830     0.7330    -1.1280 h1         1 HF2       0.030700
     14 HOA         -2.0020    -1.8230    -0.7130 ho         1 HF2       0.471000
     15 HB          -0.5860     1.1300     1.3060 hc         1 HF2       0.051700
     16 HBA         -0.5930    -0.5950     1.5910 hc         1 HF2       0.051700
     17 HZ           4.8910     0.0480    -0.5280 ha         1 HF2       0.090000
     18 HD1          1.0670     2.0450    -0.5620 ha         1 HF2       0.113000
     19 HD2          1.4850    -1.8020     1.3680 ha         1 HF2       0.113000
     20 HE1          3.4740     1.9920    -1.1810 ha         1 HF2       0.092500
     21 HE2          3.8920    -1.8460     0.7480 ha         1 HF2       0.092500
@<TRIPOS>BOND
     1     1     2 1   
     2     1     3 1   
     3     1    12 1   
     4     3     4 1   
     5     3     5 1   
     6     3    13 1   
     7     4    14 1   
     8     5     6 1   
     9     5    15 1   
    10     5    16 1   
    11     6     8 ar  
    12     6     9 ar  
    13     7    10 ar  
    14     7    11 ar  
    15     7    17 1   
    16     8    10 ar  
    17     8    18 1   
    18     9    11 ar  
    19     9    19 1   
    20    10    20 1   
    21    11    21 1   
@<TRIPOS>SUBSTRUCTURE
     1 HF2         1 TEMP              0 ****  ****    0 ROOT
