@<TRIPOS>MOLECULE
HF2
   21    21     1     0     0
SMALL
bcc


@<TRIPOS>ATOM
      1 C           -2.7700     0.0710     0.0380 c          1 HF2       0.901600
      2 O           -3.4390    -0.9860    -0.0040 o          1 HF2      -0.825800
      3 CA          -1.2830    -0.0890    -0.3540 c3         1 HF2       0.001100
      4 OA          -1.0320    -1.4210    -0.7160 oh         1 HF2      -0.643800
      5 CB          -0.3730     0.3580     0.7970 c3         1 HF2      -0.043100
      6 CG           1.0810     0.2390     0.4480 ca         1 HF2      -0.032300
      7 CZ           3.7800     0.0090    -0.2790 ca         1 HF2      -0.158000
      8 CD1          1.7460     1.2900    -0.1830 ca         1 HF2      -0.125000
      9 CD2          1.7920    -0.9310     0.7040 ca         1 HF2      -0.125000
     10 CE1          3.0820     1.1790    -0.5450 ca         1 HF2      -0.140000
     11 CE2          3.1300    -1.0460     0.3490 ca         1 HF2      -0.140000
     12 O3          -3.1640     1.2030     0.3590 o          1 HF2      -0.825800
     13 HA          -1.0870     0.5740    -1.2100 h1         1 HF2       0.030700
     14 HOA         -1.8940    -1.8440    -0.5450 ho         1 HF2       0.432000
     15 HB          -0.6160     1.3940     1.0410 hc         1 HF2       0.051700
     16 HBA         -0.5980    -0.2430     1.6840 hc         1 HF2       0.051700
     17 HZ           4.8230    -0.0810    -0.5550 ha         1 HF2       0.108000
     18 HD1          1.2100     2.2100    -0.3910 ha         1 HF2       0.131000
     19 HD2          1.2950    -1.7600     1.1940 ha         1 HF2       0.131000
     20 HE1          3.5780     2.0100    -1.0310 ha         1 HF2       0.110500
     21 HE2          3.6660    -1.9620     0.5640 ha         1 HF2       0.110500
@<TRIPOS>BOND
     1     1     2 1   
     2     1     3 1   
     3     1    12 1   
     4     3     4 1   
     5     3     5 1   
     6     3    13 1   
     7     4    14 1   
     8     5     6 1   
     9     5    15 1   
    10     5    16 1   
    11     6     8 ar  
    12     6     9 ar  
    13     7    10 ar  
    14     7    11 ar  
    15     7    17 1   
    16     8    10 ar  
    17     8    18 1   
    18     9    11 ar  
    19     9    19 1   
    20    10    20 1   
    21    11    21 1   
@<TRIPOS>SUBSTRUCTURE
     1 HF2         1 TEMP              0 ****  ****    0 ROOT
