@<TRIPOS>MOLECULE
HF6
   23    23     1     0     0
SMALL
No Charge or Current Charge


@<TRIPOS>ATOM
      1 C1          -3.6750    -6.4020     6.6660 ca         1 HF6      -0.122800
      2 C2          -3.9130    -7.5090     5.8240 ca         1 HF6      -0.043000
      3 C3          -3.1130    -8.6600     5.9170 ca         1 HF6      -0.184000
      4 C4          -2.0680    -8.7180     6.8490 ca         1 HF6       0.159100
      5 C5          -1.8210    -7.6240     7.6910 ca         1 HF6      -0.184000
      6 C6          -2.6200    -6.4700     7.6020 ca         1 HF6      -0.043000
      7 C8          -4.5440    -5.1920     6.5430 ce         1 HF6      -0.063200
      8 C9          -4.4910    -4.0220     7.2500 cf         1 HF6      -0.285200
      9 C10         -5.3970    -2.8590     7.0670 c          1 HF6       0.595300
     10 C13         -7.2700    -2.0080     5.8140 c3         1 HF6       0.153900
     11 O7          -1.2980    -9.8390     6.9300 oh         1 HF6      -0.528100
     12 O11         -5.3030    -1.8360     7.7290 o          1 HF6      -0.490000
     13 O12         -6.3320    -3.0650     6.0870 os         1 HF6      -0.447100
     14 H1          -4.7210    -7.4800     5.0950 ha         1 HF6       0.117000
     15 H2          -3.3040    -9.5080     5.2640 ha         1 HF6       0.124000
     16 H3          -1.0130    -7.6590     8.4180 ha         1 HF6       0.124000
     17 H4          -2.4090    -5.6360     8.2650 ha         1 HF6       0.117000
     18 H5          -5.3150    -5.2900     5.7760 ha         1 HF6       0.187000
     19 H6          -3.7380    -3.8880     8.0220 ha         1 HF6       0.200000
     20 H7          -7.9580    -2.3050     5.0120 h1         1 HF6       0.047367
     21 H8          -7.8680    -1.7750     6.7050 h1         1 HF6       0.047367
     22 H9          -6.7500    -1.0950     5.4960 h1         1 HF6       0.047367
     23 H10         -0.6250    -9.7010     7.6300 ho         1 HF6       0.469000
@<TRIPOS>BOND
     1     1     2 ar  
     2     1     6 ar  
     3     1     7 1   
     4     2     3 ar  
     5     2    14 1   
     6     3     4 ar  
     7     3    15 1   
     8     4     5 ar  
     9     4    11 1   
    10     5     6 ar  
    11     5    16 1   
    12     6    17 1   
    13     7     8 2   
    14     7    18 1   
    15     8     9 1   
    16     8    19 1   
    17     9    12 2   
    18     9    13 1   
    19    10    13 1   
    20    10    20 1   
    21    10    21 1   
    22    10    22 1   
    23    11    23 1   
@<TRIPOS>SUBSTRUCTURE
     1 HF6         1 TEMP              0 ****  ****    0 ROOT
