@<TRIPOS>MOLECULE
HF6
   23    23     1     0     0
SMALL
bcc


@<TRIPOS>ATOM
      1 C1          -3.6920    -6.3660     6.6720 ca         1 HF6      -0.122800
      2 C2          -3.9150    -7.4770     5.8530 ca         1 HF6      -0.061000
      3 C3          -3.1320    -8.6130     5.9380 ca         1 HF6      -0.202000
      4 C4          -2.0860    -8.6650     6.8580 ca         1 HF6       0.159100
      5 C5          -1.8470    -7.5640     7.6850 ca         1 HF6      -0.202000
      6 C6          -2.6390    -6.4380     7.5900 ca         1 HF6      -0.061000
      7 C8          -4.5570    -5.2050     6.5290 ce         1 HF6      -0.013200
      8 C9          -4.5040    -4.0730     7.2460 cf         1 HF6      -0.235200
      9 C10         -5.3980    -2.9270     7.0510 c          1 HF6       0.644300
     10 C13         -7.2100    -2.0390     5.8370 c3         1 HF6       0.130700
     11 O7          -1.3490    -9.7840     6.9060 oh         1 HF6      -0.489100
     12 O11         -5.3090    -1.9060     7.6950 o          1 HF6      -0.539000
     13 O12         -6.3100    -3.1110     6.1010 os         1 HF6      -0.423900
     14 H1          -4.7240    -7.4510     5.1320 ha         1 HF6       0.135000
     15 H2          -3.3250    -9.4610     5.2930 ha         1 HF6       0.142000
     16 H3          -1.0350    -7.5910     8.4030 ha         1 HF6       0.142000
     17 H4          -2.4230    -5.6040     8.2470 ha         1 HF6       0.135000
     18 H5          -5.3090    -5.2970     5.7530 ha         1 HF6       0.137000
     19 H6          -3.7720    -3.9330     8.0320 ha         1 HF6       0.150000
     20 H7          -7.8580    -2.3820     5.0350 h1         1 HF6       0.047367
     21 H8          -7.8160    -1.7980     6.7100 h1         1 HF6       0.047367
     22 H9          -6.6820    -1.1420     5.5110 h1         1 HF6       0.047367
     23 H10         -0.6550    -9.7110     7.5730 ho         1 HF6       0.430000
@<TRIPOS>BOND
     1     1     2 ar  
     2     1     6 ar  
     3     1     7 1   
     4     2     3 ar  
     5     2    14 1   
     6     3     4 ar  
     7     3    15 1   
     8     4     5 ar  
     9     4    11 1   
    10     5     6 ar  
    11     5    16 1   
    12     6    17 1   
    13     7     8 2   
    14     7    18 1   
    15     8     9 1   
    16     8    19 1   
    17     9    12 2   
    18     9    13 1   
    19    10    13 1   
    20    10    20 1   
    21    10    21 1   
    22    10    22 1   
    23    11    23 1   
@<TRIPOS>SUBSTRUCTURE
     1 HF6         1 TEMP              0 ****  ****    0 ROOT
