@<TRIPOS>MOLECULE
HF8
   30    30     1     0     0
SMALL
No Charge or Current Charge


@<TRIPOS>ATOM
      1 C1          -2.9100     0.2570     0.2490 c6         1 HF8       0.129300
      2 C2          -2.2190    -1.0930    -0.1160 c6         1 HF8       0.178300
      3 C3          -0.8040    -1.1930     0.5370 c6         1 HF8      -0.069700
      4 C4           0.0940     0.0170     0.1280 c6         1 HF8       0.248300
      5 C5          -0.6230     1.3550     0.5430 c6         1 HF8       0.140300
      6 C7          -2.0150     1.4680    -0.1400 c6         1 HF8       0.091300
      7 C8          -0.1180    -2.5610     0.2370 c3         1 HF8       0.165600
      8 O9          -0.8690    -3.6680     0.7650 oh         1 HF8      -0.691000
      9 O10          1.3680    -0.0850     0.8010 os         1 HF8      -0.597700
     10 O11         -2.1470    -1.2140    -1.5460 oh         1 HF8      -0.714000
     11 O12         -4.1800     0.3830    -0.4140 oh         1 HF8      -0.739000
     12 O13         -2.6550     2.7040     0.2300 oh         1 HF8      -0.750000
     13 S15          2.7260     0.2110    -0.0630 s6         1 HF8       1.498300
     14 O18          3.8110     0.0490     0.9130 o          1 HF8      -0.705533
     15 O19          2.6990    -0.8020    -1.1250 o          1 HF8      -0.705533
     16 O1           2.5190     1.5870    -0.5300 o          1 HF8      -0.705533
     17 O2           0.1580     2.5300     0.2280 oh         1 HF8      -0.672000
     18 H1          -3.0590     0.2760     1.3400 h1         1 HF8       0.047700
     19 H2          -2.8430    -1.9040     0.2900 h1         1 HF8       0.055700
     20 H3          -0.9320    -1.1600     1.6280 hc         1 HF8       0.060700
     21 H4           0.2320    -0.0030    -0.9650 h1         1 HF8       0.072700
     22 H5          -0.7820     1.3170     1.6310 h1         1 HF8       0.041700
     23 H6          -1.8540     1.4480    -1.2300 h1         1 HF8       0.062700
     24 H7           0.0100    -2.6630    -0.8500 h1         1 HF8       0.058200
     25 H8           0.8880    -2.5560     0.6800 h1         1 HF8       0.058200
     26 H9          -0.3810    -4.4870     0.5260 ho         1 HF8       0.436000
     27 H10         -3.0200    -0.8730    -1.8550 ho         1 HF8       0.503000
     28 H11         -4.3710     1.3530    -0.3710 ho         1 HF8       0.513000
     29 H12         -1.9090     3.3480     0.3140 ho         1 HF8       0.506000
     30 H13          1.0730     2.2110    -0.0180 ho         1 HF8       0.484000
@<TRIPOS>BOND
     1     1     2 1   
     2     1     6 1   
     3     1    11 1   
     4     1    18 1   
     5     2     3 1   
     6     2    10 1   
     7     2    19 1   
     8     3     4 1   
     9     3     7 1   
    10     3    20 1   
    11     4     5 1   
    12     4     9 1   
    13     4    21 1   
    14     5     6 1   
    15     5    17 1   
    16     5    22 1   
    17     6    12 1   
    18     6    23 1   
    19     7     8 1   
    20     7    24 1   
    21     7    25 1   
    22     8    26 1   
    23     9    13 1   
    24    10    27 1   
    25    11    28 1   
    26    12    29 1   
    27    13    14 1   
    28    13    15 1   
    29    13    16 1   
    30    17    30 1   
@<TRIPOS>SUBSTRUCTURE
     1 HF8         1 TEMP              0 ****  ****    0 ROOT
