@<TRIPOS>MOLECULE
HF8
   30    30     1     0     0
SMALL
abcg2


@<TRIPOS>ATOM
      1 C1          -2.7830     0.2980     0.3710 c6         1 HF8       0.129300
      2 C2          -2.1530    -1.0000    -0.1190 c6         1 HF8       0.178300
      3 C3          -0.7490    -1.1650     0.4630 c6         1 HF8      -0.069700
      4 C4           0.1340     0.0340     0.0920 c6         1 HF8       0.248300
      5 C5          -0.5100     1.3240     0.5960 c6         1 HF8       0.140300
      6 C7          -1.9120     1.4900     0.0100 c6         1 HF8       0.091300
      7 C8          -0.1280    -2.4990     0.0660 c3         1 HF8       0.165600
      8 O9          -0.9940    -3.5330     0.4890 oh         1 HF8      -0.691000
      9 O10          1.4030    -0.0970     0.7250 os         1 HF8      -0.597700
     10 O11         -2.0610    -1.0310    -1.5260 oh         1 HF8      -0.714000
     11 O12         -4.0670     0.3960    -0.2020 oh         1 HF8      -0.739000
     12 O13         -2.5390     2.6510     0.5260 oh         1 HF8      -0.750000
     13 S15          2.7680    -0.1540    -0.1900 s6         1 HF8       1.498300
     14 O18          3.7790    -0.2340     0.8640 o          1 HF8      -0.705533
     15 O19          2.6480    -1.3610    -1.0140 o          1 HF8      -0.705533
     16 O1           2.8030     1.0780    -0.9770 o          1 HF8      -0.705533
     17 O2           0.3120     2.4090     0.2540 oh         1 HF8      -0.672000
     18 H1          -2.8540     0.2380     1.4690 h1         1 HF8       0.047700
     19 H2          -2.7760    -1.8280     0.2440 h1         1 HF8       0.055700
     20 H3          -0.8600    -1.1670     1.5550 hc         1 HF8       0.060700
     21 H4           0.2460     0.0860    -0.9970 h1         1 HF8       0.072700
     22 H5          -0.6050     1.2390     1.6910 h1         1 HF8       0.041700
     23 H6          -1.8320     1.5580    -1.0820 h1         1 HF8       0.062700
     24 H7           0.0340    -2.5300    -1.0170 h1         1 HF8       0.058200
     25 H8           0.8540    -2.5980     0.5380 h1         1 HF8       0.058200
     26 H9          -0.5980    -4.3710     0.2360 ho         1 HF8       0.436000
     27 H10         -2.9330    -0.8330    -1.8840 ho         1 HF8       0.503000
     28 H11         -4.3890     1.2920    -0.0560 ho         1 HF8       0.513000
     29 H12         -2.3700     3.3880    -0.0670 ho         1 HF8       0.506000
     30 H13          0.0190     3.1740     0.7590 ho         1 HF8       0.484000
@<TRIPOS>BOND
     1     1     2 1   
     2     1     6 1   
     3     1    11 1   
     4     1    18 1   
     5     2     3 1   
     6     2    10 1   
     7     2    19 1   
     8     3     4 1   
     9     3     7 1   
    10     3    20 1   
    11     4     5 1   
    12     4     9 1   
    13     4    21 1   
    14     5     6 1   
    15     5    17 1   
    16     5    22 1   
    17     6    12 1   
    18     6    23 1   
    19     7     8 1   
    20     7    24 1   
    21     7    25 1   
    22     8    26 1   
    23     9    13 1   
    24    10    27 1   
    25    11    28 1   
    26    12    29 1   
    27    13    14 1   
    28    13    15 1   
    29    13    16 1   
    30    17    30 1   
@<TRIPOS>SUBSTRUCTURE
     1 HF8         1 TEMP              0 ****  ****    0 ROOT
