@<TRIPOS>MOLECULE
HF9
   20    20     1     0     0
SMALL
abcg2


@<TRIPOS>ATOM
      1 C1          -2.4150   -10.6650     5.7590 ca         1 HF9       0.218100
      2 C6          -3.4640    -9.8830     5.2520 ca         1 HF9      -0.209000
      3 C5          -3.5890    -8.5820     5.6700 ca         1 HF9       0.026000
      4 C3          -1.6490    -8.8090     7.0930 ca         1 HF9       0.264100
      5 C2          -1.5180   -10.1300     6.6710 ca         1 HF9      -0.288000
      6 C4          -2.6980    -8.0110     6.5910 ca         1 HF9      -0.308600
      7 O7          -2.3300   -11.9270     5.3240 oh         1 HF9      -0.523100
      8 O8          -0.7580    -8.3540     7.9710 oh         1 HF9      -0.541100
      9 O10         -3.8260    -5.9700     6.5070 os         1 HF9      -0.426100
     10 O11         -2.0520    -6.1150     7.8470 o          1 HF9      -0.545000
     11 C12         -4.0140    -4.6050     6.8850 c3         1 HF9       0.154900
     12 H1          -4.1610   -10.3070     4.5420 ha         1 HF9       0.136000
     13 H2          -4.4000    -7.9860     5.2750 ha         1 HF9       0.130000
     14 H3          -0.7060   -10.7300     7.0670 ha         1 HF9       0.134000
     15 H4          -1.5830   -12.3840     5.7290 ho         1 HF9       0.473000
     16 H5          -0.9790    -7.4180     8.1690 ho         1 HF9       0.518000
     17 H6          -4.8880    -4.2660     6.3380 h1         1 HF9       0.051700
     18 H7          -4.1970    -4.5100     7.9550 h1         1 HF9       0.051700
     19 H8          -3.1550    -3.9950     6.6100 h1         1 HF9       0.051700
     20 C9          -2.8180    -6.6270     7.0420 c          1 HF9       0.631700
@<TRIPOS>BOND
     1     1     2 ar  
     2     1     5 ar  
     3     1     7 1   
     4     2     3 ar  
     5     2    12 1   
     6     3     6 ar  
     7     3    13 1   
     8     4     5 ar  
     9     4     6 ar  
    10     4     8 1   
    11     5    14 1   
    12     6    20 1   
    13     7    15 1   
    14     8    16 1   
    15     9    11 1   
    16     9    20 1   
    17    10    20 2   
    18    11    17 1   
    19    11    18 1   
    20    11    19 1   
@<TRIPOS>SUBSTRUCTURE
     1 HF9         1 TEMP              0 ****  ****    0 ROOT
