@<TRIPOS>MOLECULE
HF9
   20    20     1     0     0
SMALL
No Charge or Current Charge


@<TRIPOS>ATOM
      1 C1          -2.4250   -10.7050     5.7390 ca         1 HF9       0.218100
      2 C6          -3.4580    -9.9030     5.2460 ca         1 HF9      -0.209000
      3 C5          -3.5850    -8.5710     5.6710 ca         1 HF9       0.026000
      4 C3          -1.6310    -8.8550     7.0870 ca         1 HF9       0.264100
      5 C2          -1.5130   -10.1820     6.6590 ca         1 HF9      -0.288000
      6 C4          -2.6670    -8.0290     6.6010 ca         1 HF9      -0.308600
      7 O7          -2.3120   -11.9940     5.3220 oh         1 HF9      -0.523100
      8 O8          -0.7220    -8.3880     7.9820 oh         1 HF9      -0.541100
      9 O10         -3.8540    -5.9280     6.4980 os         1 HF9      -0.426100
     10 O11         -2.0260    -6.0920     7.8630 o          1 HF9      -0.545000
     11 C12         -4.0620    -4.5550     6.8750 c3         1 HF9       0.154900
     12 H1          -4.1670   -10.3130     4.5310 ha         1 HF9       0.136000
     13 H2          -4.4000    -7.9720     5.2680 ha         1 HF9       0.130000
     14 H3          -0.7060   -10.7980     7.0470 ha         1 HF9       0.134000
     15 H4          -1.5370   -12.3910     5.7710 ho         1 HF9       0.473000
     16 H5          -0.9710    -7.4470     8.1570 ho         1 HF9       0.518000
     17 H6          -4.9350    -4.1440     6.3530 h1         1 HF9       0.051700
     18 H7          -4.2390    -4.4670     7.9550 h1         1 HF9       0.051700
     19 H8          -3.1900    -3.9410     6.6140 h1         1 HF9       0.051700
     20 C9          -2.8000    -6.5990     7.0590 c          1 HF9       0.631700
@<TRIPOS>BOND
     1     1     2 ar  
     2     1     5 ar  
     3     1     7 1   
     4     2     3 ar  
     5     2    12 1   
     6     3     6 ar  
     7     3    13 1   
     8     4     5 ar  
     9     4     6 ar  
    10     4     8 1   
    11     5    14 1   
    12     6    20 1   
    13     7    15 1   
    14     8    16 1   
    15     9    11 1   
    16     9    20 1   
    17    10    20 2   
    18    11    17 1   
    19    11    18 1   
    20    11    19 1   
@<TRIPOS>SUBSTRUCTURE
     1 HF9         1 TEMP              0 ****  ****    0 ROOT
