@<TRIPOS>MOLECULE
HFA
   21    21     1     0     0
SMALL
abcg2


@<TRIPOS>ATOM
      1 OA           1.4330     0.6940     1.0650 oh         1 HFA      -0.706000
      2 CA           0.0850     0.3800     1.2930 c3         1 HFA       0.023300
      3 C           -0.1190     0.0080     2.7800 c          1 HFA       0.691000
      4 O            0.9250     0.0150     3.4700 o          1 HFA      -0.720500
      5 CB          -0.3830    -0.7630     0.3840 c3         1 HFA      -0.043100
      6 CG          -0.2380    -0.4250    -1.0710 ca         1 HFA      -0.032300
      7 CD1          0.9210    -0.7420    -1.7760 ca         1 HFA      -0.107000
      8 CD2         -1.2530     0.2570    -1.7410 ca         1 HFA      -0.107000
      9 CE1          1.0580    -0.3970    -3.1150 ca         1 HFA      -0.122000
     10 CE2         -1.1200     0.6080    -3.0770 ca         1 HFA      -0.122000
     11 CZ           0.0390     0.2820    -3.7710 ca         1 HFA      -0.140000
     12 OXT         -1.2700    -0.2630     3.1520 o          1 HFA      -0.720500
     13 HOA          1.8340     0.5140     1.9360 ho         1 HFA       0.471000
     14 HA          -0.5440     1.2570     1.0750 h1         1 HFA       0.030700
     15 HB1          0.1900    -1.6650     0.6220 hc         1 HFA       0.051700
     16 HB2         -1.4280    -0.9780     0.6140 hc         1 HFA       0.051700
     17 HD1          1.7220    -1.2710    -1.2750 ha         1 HFA       0.112500
     18 HD2         -2.1640     0.5120    -1.2100 ha         1 HFA       0.112500
     19 HE1          1.9640    -0.6580    -3.6470 ha         1 HFA       0.092500
     20 HE2         -1.9230     1.1340    -3.5780 ha         1 HFA       0.092500
     21 HZ           0.1460     0.5510    -4.8130 ha         1 HFA       0.090000
@<TRIPOS>BOND
     1     1     2 1   
     2     1    13 1   
     3     2     3 1   
     4     2     5 1   
     5     2    14 1   
     6     3     4 1   
     7     3    12 1   
     8     5     6 1   
     9     5    15 1   
    10     5    16 1   
    11     6     7 ar  
    12     6     8 ar  
    13     7     9 ar  
    14     7    17 1   
    15     8    10 ar  
    16     8    18 1   
    17     9    11 ar  
    18     9    19 1   
    19    10    11 ar  
    20    10    20 1   
    21    11    21 1   
@<TRIPOS>SUBSTRUCTURE
     1 HFA         1 TEMP              0 ****  ****    0 ROOT
