@<TRIPOS>MOLECULE
HFA
   21    21     1     0     0
SMALL
No Charge or Current Charge


@<TRIPOS>ATOM
      1 OA           1.3730     0.9060     1.1840 oh         1 HFA      -0.706000
      2 CA           0.0200     0.3990     1.3430 c3         1 HFA       0.023300
      3 C           -0.2800    -0.0090     2.8320 c          1 HFA       0.691000
      4 O            0.6790    -0.1830     3.5750 o          1 HFA      -0.720500
      5 CB          -0.2060    -0.7990     0.3850 c3         1 HFA      -0.043100
      6 CG          -0.1320    -0.4220    -1.0930 ca         1 HFA      -0.032300
      7 CD1          0.9540    -0.8420    -1.8870 ca         1 HFA      -0.107000
      8 CD2         -1.1620     0.3400    -1.6810 ca         1 HFA      -0.107000
      9 CE1          1.0110    -0.5010    -3.2500 ca         1 HFA      -0.122000
     10 CE2         -1.1040     0.6810    -3.0440 ca         1 HFA      -0.122000
     11 CZ          -0.0170     0.2610    -3.8280 ca         1 HFA      -0.140000
     12 OXT         -1.4420    -0.0240     3.2150 o          1 HFA      -0.720500
     13 HOA          1.8280     0.6700     2.0300 ho         1 HFA       0.471000
     14 HA          -0.6990     1.1870     1.0800 h1         1 HFA       0.030700
     15 HB1          0.5190    -1.5890     0.6200 hc         1 HFA       0.051700
     16 HB2         -1.1930    -1.2310     0.5910 hc         1 HFA       0.051700
     17 HD1          1.7560    -1.4310    -1.4470 ha         1 HFA       0.112500
     18 HD2         -2.0080     0.6670    -1.0810 ha         1 HFA       0.112500
     19 HE1          1.8530    -0.8270    -3.8560 ha         1 HFA       0.092500
     20 HE2         -1.9020     1.2700    -3.4910 ha         1 HFA       0.092500
     21 HZ           0.0270     0.5250    -4.8820 ha         1 HFA       0.090000
@<TRIPOS>BOND
     1     1     2 1   
     2     1    13 1   
     3     2     3 1   
     4     2     5 1   
     5     2    14 1   
     6     3     4 1   
     7     3    12 1   
     8     5     6 1   
     9     5    15 1   
    10     5    16 1   
    11     6     7 ar  
    12     6     8 ar  
    13     7     9 ar  
    14     7    17 1   
    15     8    10 ar  
    16     8    18 1   
    17     9    11 ar  
    18     9    19 1   
    19    10    11 ar  
    20    10    20 1   
    21    11    21 1   
@<TRIPOS>SUBSTRUCTURE
     1 HFA         1 TEMP              0 ****  ****    0 ROOT
