@<TRIPOS>MOLECULE
HFB
   12    12     1     0     0
SMALL
No Charge or Current Charge


@<TRIPOS>ATOM
      1 F6          -2.7660     0.0330    -0.0370 f          1 HFB      -0.127000
      2 C6          -1.4120     0.0120    -0.0220 ca         1 HFB       0.126833
      3 C1          -0.6900     1.2210    -0.0240 ca         1 HFB       0.126833
      4 F1          -1.3490     2.4040    -0.0390 f          1 HFB      -0.127000
      5 C5          -0.7260    -1.2170    -0.0060 ca         1 HFB       0.126833
      6 F5          -1.4210    -2.3800    -0.0050 f          1 HFB      -0.127000
      7 C4           0.6810    -1.2380     0.0090 ca         1 HFB       0.126833
      8 F4           1.3410    -2.4210     0.0240 f          1 HFB      -0.127000
      9 C3           1.4040    -0.0300     0.0070 ca         1 HFB       0.126833
     10 F3           2.7580    -0.0500     0.0220 f          1 HFB      -0.127000
     11 C2           0.7180     1.2000    -0.0090 ca         1 HFB       0.126833
     12 F2           1.4130     2.3630    -0.0100 f          1 HFB      -0.127000
@<TRIPOS>BOND
     1     1     2 1   
     2     2     3 ar  
     3     2     5 ar  
     4     3     4 1   
     5     3    11 ar  
     6     5     6 1   
     7     5     7 ar  
     8     7     8 1   
     9     7     9 ar  
    10     9    10 1   
    11     9    11 ar  
    12    11    12 1   
@<TRIPOS>SUBSTRUCTURE
     1 HFB         1 TEMP              0 ****  ****    0 ROOT
