@<TRIPOS>MOLECULE
HFB
   12    12     1     0     0
SMALL
abcg2


@<TRIPOS>ATOM
      1 F6          -2.7120     0.0320    -0.0360 f          1 HFB      -0.127000
      2 C6          -1.3870     0.0120    -0.0220 ca         1 HFB       0.126833
      3 C1          -0.6770     1.1990    -0.0230 ca         1 HFB       0.126833
      4 F1          -1.3230     2.3570    -0.0380 f          1 HFB      -0.127000
      5 C5          -0.7130    -1.1960    -0.0060 ca         1 HFB       0.126833
      6 F5          -1.3930    -2.3340    -0.0060 f          1 HFB      -0.127000
      7 C4           0.6690    -1.2160     0.0080 ca         1 HFB       0.126833
      8 F4           1.3140    -2.3740     0.0240 f          1 HFB      -0.127000
      9 C3           1.3780    -0.0290     0.0070 ca         1 HFB       0.126833
     10 F3           2.7040    -0.0500     0.0210 f          1 HFB      -0.127000
     11 C2           0.7050     1.1780    -0.0090 ca         1 HFB       0.126833
     12 F2           1.3850     2.3160    -0.0100 f          1 HFB      -0.127000
@<TRIPOS>BOND
     1     1     2 1   
     2     2     3 ar  
     3     2     5 ar  
     4     3     4 1   
     5     3    11 ar  
     6     5     6 1   
     7     5     7 ar  
     8     7     8 1   
     9     7     9 ar  
    10     9    10 1   
    11     9    11 ar  
    12    11    12 1   
@<TRIPOS>SUBSTRUCTURE
     1 HFB         1 TEMP              0 ****  ****    0 ROOT
