@<TRIPOS>MOLECULE
HFC
   19    20     1     0     0
SMALL
No Charge or Current Charge


@<TRIPOS>ATOM
      1 C1          24.8960    21.2070    19.8260 ca         1 HFC       0.181100
      2 C2          24.6610    19.9590    19.2190 ca         1 HFC      -0.157800
      3 C3          25.7130    19.0310    19.0930 ca         1 HFC      -0.070000
      4 C4          26.9930    19.3570    19.5750 ca         1 HFC       0.097100
      5 C5          27.2230    20.6100    20.1840 ca         1 HFC       0.104100
      6 C6          26.1730    21.5340    20.3090 ca         1 HFC      -0.197000
      7 O7          23.8760    22.1200    19.9540 os         1 HFC      -0.338200
      8 C8          22.5910    21.9070    19.5200 c          1 HFC       0.672300
      9 C9          22.3320    20.6050    18.8820 cc         1 HFC      -0.327200
     10 C10         23.3200    19.6600    18.7310 cd         1 HFC      -0.059200
     11 O11         21.7190    22.7520    19.6570 o          1 HFC      -0.483000
     12 O12         28.4720    20.9210    20.6520 oh         1 HFC      -0.549100
     13 O13         28.0190    18.4630    19.4570 oh         1 HFC      -0.531100
     14 H1          25.5430    18.0640    18.6250 ha         1 HFC       0.138000
     15 H2          26.3340    22.5020    20.7750 ha         1 HFC       0.141000
     16 H3          21.3160    20.4440    18.5410 ha         1 HFC       0.215000
     17 H4          23.0990    18.7060    18.2560 ha         1 HFC       0.194000
     18 H5          28.4490    21.8240    21.0400 ho         1 HFC       0.486000
     19 H6          28.8090    18.8940    19.8560 ho         1 HFC       0.485000
@<TRIPOS>BOND
     1     1     2 ar  
     2     1     6 ar  
     3     1     7 1   
     4     2     3 ar  
     5     2    10 1   
     6     3     4 ar  
     7     3    14 1   
     8     4     5 ar  
     9     4    13 1   
    10     5     6 ar  
    11     5    12 1   
    12     6    15 1   
    13     7     8 1   
    14     8     9 1   
    15     8    11 2   
    16     9    10 2   
    17     9    16 1   
    18    10    17 1   
    19    12    18 1   
    20    13    19 1   
@<TRIPOS>SUBSTRUCTURE
     1 HFC         1 TEMP              0 ****  ****    0 ROOT
