@<TRIPOS>MOLECULE
HFC
   19    20     1     0     0
SMALL
bcc


@<TRIPOS>ATOM
      1 C1          24.8770    21.1920    19.8200 ca         1 HFC       0.181100
      2 C2          24.6560    19.9570    19.2200 ca         1 HFC      -0.157800
      3 C3          25.7270    19.0590    19.1070 ca         1 HFC      -0.088000
      4 C4          26.9760    19.3870    19.5800 ca         1 HFC       0.097100
      5 C5          27.1730    20.6470    20.1880 ca         1 HFC       0.104100
      6 C6          26.1280    21.5450    20.3070 ca         1 HFC      -0.215000
      7 O7          23.8770    22.0960    19.9460 os         1 HFC      -0.338200
      8 C8          22.6080    21.8780    19.5050 c          1 HFC       0.747800
      9 C9          22.3520    20.5950    18.8860 cc         1 HFC      -0.277200
     10 C10         23.3330    19.6820    18.7500 cd         1 HFC      -0.009200
     11 O11         21.8070    22.7650    19.6640 o          1 HFC      -0.558500
     12 O12         28.4190    20.8900    20.6230 oh         1 HFC      -0.510100
     13 O13         27.9870    18.5050    19.4560 oh         1 HFC      -0.492100
     14 H1          25.5690    18.0940    18.6420 ha         1 HFC       0.156000
     15 H2          26.2800    22.5120    20.7710 ha         1 HFC       0.159000
     16 H3          21.3460    20.4080    18.5390 ha         1 HFC       0.165000
     17 H4          23.1300    18.7260    18.2830 ha         1 HFC       0.144000
     18 H5          28.4920    21.7610    21.0330 ho         1 HFC       0.447000
     19 H6          28.8010    18.8600    19.8310 ho         1 HFC       0.446000
@<TRIPOS>BOND
     1     1     2 ar  
     2     1     6 ar  
     3     1     7 1   
     4     2     3 ar  
     5     2    10 1   
     6     3     4 ar  
     7     3    14 1   
     8     4     5 ar  
     9     4    13 1   
    10     5     6 ar  
    11     5    12 1   
    12     6    15 1   
    13     7     8 1   
    14     8     9 1   
    15     8    11 2   
    16     9    10 2   
    17     9    16 1   
    18    10    17 1   
    19    12    18 1   
    20    13    19 1   
@<TRIPOS>SUBSTRUCTURE
     1 HFC         1 TEMP              0 ****  ****    0 ROOT
