@<TRIPOS>MOLECULE
HFG
   41    43     1     0     0
SMALL
No Charge or Current Charge


@<TRIPOS>ATOM
      1 O4           2.5210     1.4360     1.3200 o          1 HFG      -0.494100
      2 C21          3.0560     1.2610     0.2300 c          1 HFG       0.573100
      3 C3           4.5720     1.3790     0.0640 c3         1 HFG      -0.170400
      4 C2           5.3010     0.0940     0.5330 c6         1 HFG       0.177500
      5 N1           4.9390    -1.0040    -0.4010 n7         1 HFG      -0.847400
      6 C6           5.5300    -2.3060    -0.0080 c6         1 HFG       0.151800
      7 C5           7.0730    -2.2060     0.0480 c6         1 HFG      -0.112400
      8 C4           7.5280    -1.0740     1.0050 c6         1 HFG      -0.113400
      9 C39          6.8590     0.2720     0.6270 c6         1 HFG       0.139300
     10 O7           7.2190     1.2660     1.5960 oh         1 HFG      -0.655000
     11 C1           2.2410     0.9540    -1.0450 c3         1 HFG      -0.021000
     12 N3           0.7580     1.0250    -0.8710 n          1 HFG      -0.321300
     13 C14          0.0700    -0.1090    -0.4410 c          1 HFG       0.579600
     14 O11          0.6310    -1.1710    -0.2060 o          1 HFG      -0.511000
     15 C10         -1.3960     0.0590    -0.2880 ca         1 HFG      -0.183600
     16 C13         -2.2100    -1.0190     0.1280 ca         1 HFG      -0.034000
     17 C11          0.0860     2.2190    -1.0990 cc         1 HFG       0.515800
     18 N2          -1.2270     2.4300    -0.9750 nd         1 HFG      -0.618100
     19 C9          -1.9660     1.3130    -0.5630 ca         1 HFG       0.185400
     20 C8          -3.3560     1.4750    -0.4170 ca         1 HFG      -0.071000
     21 C7          -4.1720     0.4070    -0.0050 ca         1 HFG       0.008100
     22 Br1         -6.0610     0.6930     0.1750 br         1 HFG      -0.056100
     23 C12         -3.5950    -0.8470     0.2700 ca         1 HFG       0.105000
     24 Cl1         -4.5830    -2.2120     0.7900 cl         1 HFG      -0.162000
     25 H1           4.8170     1.5590    -0.9890 hc         1 HFG       0.068200
     26 H2           4.9080     2.2290     0.6690 hc         1 HFG       0.068200
     27 H3           4.9330    -0.1540     1.5420 h1         1 HFG       0.092700
     28 H4           5.2970    -0.7670    -1.3350 hn         1 HFG       0.401000
     29 H6           5.1420    -2.6080     0.9770 h1         1 HFG       0.061700
     30 H7           5.2360    -3.0820    -0.7310 h1         1 HFG       0.061700
     31 H8           7.4940    -3.1660     0.3780 hc         1 HFG       0.046200
     32 H9           7.4690    -2.0220    -0.9600 hc         1 HFG       0.046200
     33 H10          7.2660    -1.3440     2.0380 hc         1 HFG       0.050700
     34 H11          8.6220    -0.9780     0.9720 hc         1 HFG       0.050700
     35 H12          7.2300     0.5740    -0.3640 h1         1 HFG       0.022700
     36 H13          8.1980     1.3480     1.5650 ho         1 HFG       0.446000
     37 H14          2.5530     1.6700    -1.8160 h1         1 HFG       0.084200
     38 H15          2.5350    -0.0420    -1.3970 h1         1 HFG       0.084200
     39 H16         -1.7730    -1.9920     0.3420 ha         1 HFG       0.153000
     40 H17          0.7280     3.0340    -1.4100 h5         1 HFG       0.047800
     41 H18         -3.8060     2.4410    -0.6270 ha         1 HFG       0.151000
@<TRIPOS>BOND
     1     1     2 2   
     2     2     3 1   
     3     2    11 1   
     4     3     4 1   
     5     3    25 1   
     6     3    26 1   
     7     4     5 1   
     8     4     9 1   
     9     4    27 1   
    10     5     6 1   
    11     5    28 1   
    12     6     7 1   
    13     6    29 1   
    14     6    30 1   
    15     7     8 1   
    16     7    31 1   
    17     7    32 1   
    18     8     9 1   
    19     8    33 1   
    20     8    34 1   
    21     9    10 1   
    22     9    35 1   
    23    10    36 1   
    24    11    12 1   
    25    11    37 1   
    26    11    38 1   
    27    12    13 1   
    28    12    17 1   
    29    13    14 2   
    30    13    15 1   
    31    15    16 ar  
    32    15    19 ar  
    33    16    23 ar  
    34    16    39 1   
    35    17    18 2   
    36    17    40 1   
    37    18    19 1   
    38    19    20 ar  
    39    20    21 ar  
    40    20    41 1   
    41    21    22 1   
    42    21    23 ar  
    43    23    24 1   
@<TRIPOS>SUBSTRUCTURE
     1 HFG         1 TEMP              0 ****  ****    0 ROOT
