@<TRIPOS>MOLECULE
HFG
   41    43     1     0     0
SMALL
abcg2


@<TRIPOS>ATOM
      1 O4           2.5160     1.2590     1.1510 o          1 HFG      -0.494100
      2 C21          3.0640     1.2960     0.0770 c          1 HFG       0.573100
      3 C3           4.5600     1.3700    -0.0830 c3         1 HFG      -0.170400
      4 C2           5.2210     0.1400     0.5330 c6         1 HFG       0.177500
      5 N1           4.6530    -1.0460    -0.0870 n7         1 HFG      -0.847400
      6 C6           5.2110    -2.2800     0.4440 c6         1 HFG       0.151800
      7 C5           6.7330    -2.3350     0.3560 c6         1 HFG      -0.112400
      8 C4           7.3410    -1.0990     1.0100 c6         1 HFG      -0.113400
      9 C39          6.7470     0.1800     0.4260 c6         1 HFG       0.139300
     10 O7           7.2070     1.3330     1.0960 oh         1 HFG      -0.655000
     11 C1           2.2720     1.3090    -1.2120 c3         1 HFG      -0.021000
     12 N3           0.8480     1.2380    -0.9800 n          1 HFG      -0.321300
     13 C14          0.2770    -0.0040    -0.7500 c          1 HFG       0.579600
     14 O11          0.9300    -1.0250    -0.8110 o          1 HFG      -0.511000
     15 C10         -1.1510     0.0580    -0.4520 ca         1 HFG      -0.183600
     16 C13         -1.8680    -1.1170    -0.2290 ca         1 HFG      -0.034000
     17 C11          0.1340     2.3920    -0.8660 cc         1 HFG       0.515800
     18 N2          -1.1140     2.4780    -0.5910 nd         1 HFG      -0.618100
     19 C9          -1.7880     1.3010    -0.3800 ca         1 HFG       0.185400
     20 C8          -3.1540     1.3510    -0.0820 ca         1 HFG      -0.071000
     21 C7          -3.8570     0.1870     0.1350 ca         1 HFG       0.008100
     22 BR1         -5.6840     0.2870     0.5320 br         1 HFG      -0.056100
     23 C12         -3.2120    -1.0590     0.0600 ca         1 HFG       0.105000
     24 CL1         -4.0780    -2.5210     0.3260 cl         1 HFG      -0.162000
     25 H1           4.8290     1.4520    -1.1410 hc         1 HFG       0.068200
     26 H2           4.9120     2.2800     0.4070 hc         1 HFG       0.068200
     27 H3           4.9600     0.1080     1.5980 h1         1 HFG       0.092700
     28 H4           4.8150    -1.0130    -1.0880 hn         1 HFG       0.401000
     29 H6           4.9020    -2.3700     1.4900 h1         1 HFG       0.061700
     30 H7           4.7610    -3.1200    -0.0890 h1         1 HFG       0.061700
     31 H8           7.1090    -3.2430     0.8340 hc         1 HFG       0.046200
     32 H9           7.0310    -2.3870    -0.6960 hc         1 HFG       0.046200
     33 H10          7.1440    -1.1180     2.0880 hc         1 HFG       0.050700
     34 H11          8.4280    -1.0940     0.8860 hc         1 HFG       0.050700
     35 H12          7.0060     0.2260    -0.6460 h1         1 HFG       0.022700
     36 H13          8.1650     1.3710     1.0080 ho         1 HFG       0.446000
     37 H14          2.5050     2.2240    -1.7610 h1         1 HFG       0.084200
     38 H15          2.5990     0.4820    -1.8430 h1         1 HFG       0.084200
     39 H16         -1.3670    -2.0740    -0.2880 ha         1 HFG       0.153000
     40 H17          0.6990     3.3000    -1.0420 h5         1 HFG       0.047800
     41 H18         -3.6390     2.3160    -0.0240 ha         1 HFG       0.151000
@<TRIPOS>BOND
     1     1     2 2   
     2     2     3 1   
     3     2    11 1   
     4     3     4 1   
     5     3    25 1   
     6     3    26 1   
     7     4     5 1   
     8     4     9 1   
     9     4    27 1   
    10     5     6 1   
    11     5    28 1   
    12     6     7 1   
    13     6    29 1   
    14     6    30 1   
    15     7     8 1   
    16     7    31 1   
    17     7    32 1   
    18     8     9 1   
    19     8    33 1   
    20     8    34 1   
    21     9    10 1   
    22     9    35 1   
    23    10    36 1   
    24    11    12 1   
    25    11    37 1   
    26    11    38 1   
    27    12    13 1   
    28    12    17 1   
    29    13    14 2   
    30    13    15 1   
    31    15    16 ar  
    32    15    19 ar  
    33    16    23 ar  
    34    16    39 1   
    35    17    18 2   
    36    17    40 1   
    37    18    19 1   
    38    19    20 ar  
    39    20    21 ar  
    40    20    41 1   
    41    21    22 1   
    42    21    23 ar  
    43    23    24 1   
@<TRIPOS>SUBSTRUCTURE
     1 HFG         1 TEMP              0 ****  ****    0 ROOT
