@<TRIPOS>MOLECULE
HFH
   74    78     1     0     0
SMALL
No Charge or Current Charge


@<TRIPOS>ATOM
      1 C1           8.0180     0.3440    -1.5730 c5         1 HFH       0.114300
      2 C2           6.6860    -0.4620    -1.5110 c5         1 HFH       0.081700
      3 C3           7.1160    -1.7100    -0.6760 c5         1 HFH       0.129300
      4 O5           8.8340    -0.0700    -0.4390 os         1 HFH      -0.441000
      5 N6           5.7930     0.3770    -0.6590 n          1 HFH      -0.404800
      6 C7           7.5560     1.8160    -1.3860 c5         1 HFH       0.180300
      7 C8           6.3860     1.7100    -0.3670 c5         1 HFH       0.076000
      8 C11          4.4150     0.0930    -0.5240 c          1 HFH       0.602100
      9 C12          3.5590     0.9260     0.4890 c3         1 HFH       0.044700
     10 C14          4.0610     0.8590     1.9680 c3         1 HFH      -0.086400
     11 C19          4.3320    -1.7110     2.2180 c3         1 HFH      -0.092600
     12 C21         -0.3150     0.7290     0.6340 ca         1 HFH      -0.144600
     13 C22         -1.4460     1.4710     1.0390 ca         1 HFH      -0.077500
     14 C24         -2.9510    -0.3380     0.3530 ca         1 HFH      -0.096500
     15 C27         -4.3200    -0.8540     0.1730 cc         1 HFH       0.384500
     16 C30         -6.4920    -0.7820    -0.0230 cd         1 HFH       0.718300
     17 C33         -9.0010    -1.0210    -0.0150 c6         1 HFH       0.214300
     18 C34        -10.2430    -0.3370    -0.6710 c6         1 HFH       0.153800
     19 F10          7.0920     2.3360    -2.6000 f          1 HFH      -0.254000
     20 C4           8.0970    -1.0440     0.3390 c5         1 HFH       0.108600
     21 O9           7.7550    -2.7020    -1.4980 oh         1 HFH      -0.698000
     22 O13          3.9180    -0.8290    -1.1630 o          1 HFH      -0.602100
     23 C17          3.7080    -0.4170     2.7890 c3         1 HFH      -0.056700
     24 C18          4.1120    -0.2360     4.2700 c3         1 HFH      -0.092600
     25 N15          2.1280     0.5600     0.3750 ns         1 HFH      -0.499900
     26 O20          1.2460     2.4280     1.3090 o          1 HFH      -0.613100
     27 C23         -2.7430     0.9490     0.8920 ca         1 HFH      -0.098500
     28 C25         -1.8220    -1.0710    -0.0750 ca         1 HFH      -0.098500
     29 C26         -0.5240    -0.5520     0.0690 ca         1 HFH      -0.077500
     30 C28         -4.5410    -2.2100     0.0990 cd         1 HFH      -0.278000
     31 S29         -6.2570    -2.5310    -0.0900 ss         1 HFH      -0.103400
     32 N31         -5.4160    -0.0330     0.1160 nc         1 HFH      -0.735000
     33 N32         -7.7570    -0.1930    -0.1180 nh         1 HFH      -0.756300
     34 N35        -10.4630     1.0580    -0.1880 n3         1 HFH      -0.714600
     35 C38        -11.6720     1.6790    -0.7690 c3         1 HFH       0.151100
     36 C36         -9.2310     1.8690    -0.4200 c6         1 HFH       0.153800
     37 C37         -7.9610     1.2490     0.2450 c6         1 HFH       0.214300
     38 H1           8.5770     0.1810    -2.5040 h1         1 HFH       0.084700
     39 H2           6.2560    -0.6960    -2.4940 h1         1 HFH       0.111700
     40 H3           6.2550    -2.1560    -0.1590 h1         1 HFH       0.058700
     41 H4           8.3630     2.4680    -1.0280 h1         1 HFH       0.089700
     42 H5           5.6720     2.5330    -0.5010 h1         1 HFH       0.070700
     43 H6           6.7710     1.7520     0.6600 h1         1 HFH       0.070700
     44 H7           3.6520     1.9680     0.1580 h1         1 HFH       0.080700
     45 H8           5.1450     1.0100     2.0030 hc         1 HFH       0.054200
     46 H9           3.6330     1.7220     2.4930 hc         1 HFH       0.054200
     47 H10          3.9010    -1.9630     1.2440 hc         1 HFH       0.034367
     48 H11          5.4180    -1.6060     2.1070 hc         1 HFH       0.034367
     49 H12          4.1390    -2.5600     2.8850 hc         1 HFH       0.034367
     50 H13         -1.3260     2.4630     1.4700 ha         1 HFH       0.124500
     51 H15         -8.8710    -1.9980    -0.4990 h1         1 HFH       0.057950
     52 H16        -10.1000    -0.3380    -1.7620 h1         1 HFH       0.043450
     53 H17        -11.1290    -0.9560    -0.4660 h1         1 HFH       0.043450
     54 H18          7.5560    -0.5250     1.1410 h1         1 HFH       0.058700
     55 H19          8.7910    -1.7580     0.8010 h1         1 HFH       0.058700
     56 H20          8.0370    -3.4370    -0.9050 ho         1 HFH       0.509000
     57 H21          2.6180    -0.5440     2.7770 hc         1 HFH       0.054700
     58 H22          5.1980    -0.1110     4.3670 hc         1 HFH       0.034367
     59 H23          3.6250     0.6470     4.7020 hc         1 HFH       0.034367
     60 H24          3.8130    -1.1070     4.8650 hc         1 HFH       0.034367
     61 H25          1.9060    -0.3250    -0.0640 hn         1 HFH       0.344500
     62 H26         -3.5900     1.5520     1.2120 ha         1 HFH       0.126000
     63 H27         -1.9390    -2.0500    -0.5340 ha         1 HFH       0.126000
     64 H28          0.3090    -1.1630    -0.2700 ha         1 HFH       0.124500
     65 H29         -3.8280    -3.0210     0.1560 h4         1 HFH       0.160000
     66 H31        -11.5850     1.7630    -1.8610 h1         1 HFH       0.033367
     67 H32        -12.5640     1.0800    -0.5410 h1         1 HFH       0.033367
     68 H33        -11.8270     2.6850    -0.3580 h1         1 HFH       0.033367
     69 H34         -9.0430     1.9650    -1.5000 h1         1 HFH       0.043450
     70 H35         -9.3660     2.8880    -0.0280 h1         1 HFH       0.043450
     71 H36         -8.0560     1.3420     1.3360 h1         1 HFH       0.057950
     72 H37         -7.0990     1.8620    -0.0540 h1         1 HFH       0.057950
     73 C16          1.0690     1.3240     0.8100 c          1 HFH       0.618700
     74 H14         -9.2270    -1.2140     1.0440 h1         1 HFH       0.057950
@<TRIPOS>BOND
     1     1     2 1   
     2     1     4 1   
     3     1     6 1   
     4     1    38 1   
     5     2     3 1   
     6     2     5 1   
     7     2    39 1   
     8     3    20 1   
     9     3    21 1   
    10     3    40 1   
    11     4    20 1   
    12     5     7 1   
    13     5     8 1   
    14     6     7 1   
    15     6    19 1   
    16     6    41 1   
    17     7    42 1   
    18     7    43 1   
    19     8     9 1   
    20     8    22 2   
    21     9    10 1   
    22     9    25 1   
    23     9    44 1   
    24    10    23 1   
    25    10    45 1   
    26    10    46 1   
    27    11    23 1   
    28    11    47 1   
    29    11    48 1   
    30    11    49 1   
    31    12    13 ar  
    32    12    29 ar  
    33    12    73 1   
    34    13    27 ar  
    35    13    50 1   
    36    14    15 1   
    37    14    27 ar  
    38    14    28 ar  
    39    15    30 2   
    40    15    32 1   
    41    16    31 1   
    42    16    32 2   
    43    16    33 1   
    44    17    18 1   
    45    17    33 1   
    46    17    51 1   
    47    17    74 1   
    48    18    34 1   
    49    18    52 1   
    50    18    53 1   
    51    20    54 1   
    52    20    55 1   
    53    21    56 1   
    54    23    24 1   
    55    23    57 1   
    56    24    58 1   
    57    24    59 1   
    58    24    60 1   
    59    25    61 1   
    60    25    73 1   
    61    26    73 2   
    62    27    62 1   
    63    28    29 ar  
    64    28    63 1   
    65    29    64 1   
    66    30    31 1   
    67    30    65 1   
    68    33    37 1   
    69    34    35 1   
    70    34    36 1   
    71    35    66 1   
    72    35    67 1   
    73    35    68 1   
    74    36    37 1   
    75    36    69 1   
    76    36    70 1   
    77    37    71 1   
    78    37    72 1   
@<TRIPOS>SUBSTRUCTURE
     1 HFH         1 TEMP              0 ****  ****    0 ROOT
