@<TRIPOS>MOLECULE
HFH
   74    78     1     0     0
SMALL
abcg2


@<TRIPOS>ATOM
      1 C1           7.6900     0.6120    -1.5240 c5         1 HFH       0.114300
      2 C2           6.4430    -0.2720    -1.4160 c5         1 HFH       0.081700
      3 C3           6.9680    -1.6070    -0.8570 c5         1 HFH       0.129300
      4 O5           8.6000     0.0750    -0.5920 os         1 HFH      -0.441000
      5 N6           5.5800     0.4630    -0.4940 n          1 HFH      -0.404800
      6 C7           7.2510     1.9800    -1.0410 c5         1 HFH       0.180300
      7 C8           6.2290     1.6590     0.0250 c5         1 HFH       0.076000
      8 C11          4.3060     0.0810    -0.3200 c          1 HFH       0.602100
      9 C12          3.4450     0.9060     0.6340 c3         1 HFH       0.044700
     10 C14          3.8740     0.8430     2.1120 c3         1 HFH      -0.086400
     11 C19          4.5750    -1.5990     2.4150 c3         1 HFH      -0.092600
     12 C21         -0.3190     0.6360     0.6230 ca         1 HFH      -0.144600
     13 C22         -1.4250     1.4680     0.4820 ca         1 HFH      -0.077500
     14 C24         -2.9070    -0.4410     0.3990 ca         1 HFH      -0.096500
     15 C27         -4.2640    -0.9880     0.2880 cc         1 HFH       0.384500
     16 C30         -6.4480    -0.7550     0.0560 cd         1 HFH       0.718300
     17 C33         -8.8750    -0.8990     0.1020 c6         1 HFH       0.214300
     18 C34        -10.0280    -0.2670    -0.6520 c6         1 HFH       0.153800
     19 F10          6.6210     2.6200    -2.1050 f          1 HFH      -0.254000
     20 C4           8.4690    -1.3290    -0.6630 c5         1 HFH       0.108600
     21 O9           6.7070    -2.6430    -1.7670 oh         1 HFH      -0.698000
     22 O13          3.8450    -0.8910    -0.9070 o          1 HFH      -0.602100
     23 C17          3.6490    -0.4710     2.8620 c3         1 HFH      -0.056700
     24 C18          3.8280    -0.2150     4.3570 c3         1 HFH      -0.092600
     25 N15          2.0780     0.4860     0.4540 ns         1 HFH      -0.499900
     26 O20          1.1510     2.4140     1.1680 o          1 HFH      -0.613100
     27 C23         -2.6990     0.9390     0.3620 ca         1 HFH      -0.098500
     28 C25         -1.7960    -1.2720     0.5550 ca         1 HFH      -0.098500
     29 C26         -0.5230    -0.7430     0.6630 ca         1 HFH      -0.077500
     30 C28         -4.5930    -2.3060     0.3310 cd         1 HFH      -0.278000
     31 S29         -6.2990    -2.4950     0.1850 ss         1 HFH      -0.103400
     32 N31         -5.3170    -0.1240     0.1410 nc         1 HFH      -0.735000
     33 N32         -7.6470    -0.1630    -0.1390 nh         1 HFH      -0.756300
     34 N35        -10.1480     1.1380    -0.3280 n3         1 HFH      -0.714600
     35 C38        -11.3140     1.7300    -0.9440 c3         1 HFH       0.151100
     36 C36         -8.9320     1.8310    -0.6980 c6         1 HFH       0.153800
     37 C37         -7.7430     1.2750     0.0590 c6         1 HFH       0.214300
     38 H1           8.1090     0.6300    -2.5370 h1         1 HFH       0.084700
     39 H2           5.9390    -0.4210    -2.3720 h1         1 HFH       0.111700
     40 H3           6.4980    -1.8070     0.1130 h1         1 HFH       0.058700
     41 H4           8.0660     2.6130    -0.6870 h1         1 HFH       0.089700
     42 H5           5.5330     2.4820     0.1830 h1         1 HFH       0.070700
     43 H6           6.7390     1.4640     0.9710 h1         1 HFH       0.070700
     44 H7           3.5240     1.9540     0.3240 h1         1 HFH       0.080700
     45 H8           4.9230     1.1330     2.2070 hc         1 HFH       0.054200
     46 H9           3.3120     1.6300     2.6190 hc         1 HFH       0.054200
     47 H10          4.3500    -1.9590     1.4120 hc         1 HFH       0.034367
     48 H11          5.6200    -1.2780     2.4340 hc         1 HFH       0.034367
     49 H12          4.4850    -2.4560     3.0860 hc         1 HFH       0.034367
     50 H13         -1.2930     2.5420     0.4610 ha         1 HFH       0.124500
     51 H15         -8.7680    -1.9270    -0.2480 h1         1 HFH       0.057950
     52 H16         -9.8830    -0.4260    -1.7350 h1         1 HFH       0.043450
     53 H17        -10.9470    -0.7840    -0.3690 h1         1 HFH       0.043450
     54 H18          8.8760    -1.7600     0.2520 h1         1 HFH       0.058700
     55 H19          9.0240    -1.7340    -1.5200 h1         1 HFH       0.058700
     56 H20          7.0190    -3.4700    -1.3870 ho         1 HFH       0.509000
     57 H21          2.6130    -0.7910     2.7000 hc         1 HFH       0.054700
     58 H22          4.8490     0.1050     4.5780 hc         1 HFH       0.034367
     59 H23          3.1520     0.5640     4.7130 hc         1 HFH       0.034367
     60 H24          3.6320    -1.1180     4.9360 hc         1 HFH       0.034367
     61 H25          1.9360    -0.4120     0.0170 hn         1 HFH       0.344500
     62 H26         -3.5440     1.6030     0.2460 ha         1 HFH       0.126000
     63 H27         -1.9150    -2.3470     0.6020 ha         1 HFH       0.126000
     64 H28          0.3040    -1.4270     0.8090 ha         1 HFH       0.124500
     65 H29         -3.9550    -3.1670     0.4450 h4         1 HFH       0.160000
     66 H31        -11.3020     1.6720    -2.0440 h1         1 HFH       0.033367
     67 H32        -12.2160     1.2270    -0.5940 h1         1 HFH       0.033367
     68 H33        -11.3870     2.7820    -0.6680 h1         1 HFH       0.033367
     69 H34         -8.7390     1.7680    -1.7830 h1         1 HFH       0.043450
     70 H35         -9.0310     2.8910    -0.4520 h1         1 HFH       0.043450
     71 H36         -7.8430     1.5020     1.1270 h1         1 HFH       0.057950
     72 H37         -6.8290     1.7450    -0.2980 h1         1 HFH       0.057950
     73 C16          1.0290     1.2610     0.7740 c          1 HFH       0.618700
     74 H14         -9.1000    -0.9320     1.1750 h1         1 HFH       0.057950
@<TRIPOS>BOND
     1     1     2 1   
     2     1     4 1   
     3     1     6 1   
     4     1    38 1   
     5     2     3 1   
     6     2     5 1   
     7     2    39 1   
     8     3    20 1   
     9     3    21 1   
    10     3    40 1   
    11     4    20 1   
    12     5     7 1   
    13     5     8 1   
    14     6     7 1   
    15     6    19 1   
    16     6    41 1   
    17     7    42 1   
    18     7    43 1   
    19     8     9 1   
    20     8    22 2   
    21     9    10 1   
    22     9    25 1   
    23     9    44 1   
    24    10    23 1   
    25    10    45 1   
    26    10    46 1   
    27    11    23 1   
    28    11    47 1   
    29    11    48 1   
    30    11    49 1   
    31    12    13 ar  
    32    12    29 ar  
    33    12    73 1   
    34    13    27 ar  
    35    13    50 1   
    36    14    15 1   
    37    14    27 ar  
    38    14    28 ar  
    39    15    30 2   
    40    15    32 1   
    41    16    31 1   
    42    16    32 2   
    43    16    33 1   
    44    17    18 1   
    45    17    33 1   
    46    17    51 1   
    47    17    74 1   
    48    18    34 1   
    49    18    52 1   
    50    18    53 1   
    51    20    54 1   
    52    20    55 1   
    53    21    56 1   
    54    23    24 1   
    55    23    57 1   
    56    24    58 1   
    57    24    59 1   
    58    24    60 1   
    59    25    61 1   
    60    25    73 1   
    61    26    73 2   
    62    27    62 1   
    63    28    29 ar  
    64    28    63 1   
    65    29    64 1   
    66    30    31 1   
    67    30    65 1   
    68    33    37 1   
    69    34    35 1   
    70    34    36 1   
    71    35    66 1   
    72    35    67 1   
    73    35    68 1   
    74    36    37 1   
    75    36    69 1   
    76    36    70 1   
    77    37    71 1   
    78    37    72 1   
@<TRIPOS>SUBSTRUCTURE
     1 HFH         1 TEMP              0 ****  ****    0 ROOT
