@<TRIPOS>MOLECULE
HFI
   25    27     1     0     0
SMALL
abcg2


@<TRIPOS>ATOM
      1 C10        -19.0950    -1.8200   -64.8210 cp         1 HFI      -0.136000
      2 C13        -18.4900     0.0230   -62.8280 ca         1 HFI       0.176100
      3 C15        -18.3880     0.4310   -64.1500 ca         1 HFI      -0.194000
      4 C02        -19.1670    -1.8770   -68.4300 ca         1 HFI       0.341300
      5 C04        -19.8240    -4.0030   -67.8180 ca         1 HFI       0.305900
      6 C05        -19.7270    -3.7600   -66.4620 ca         1 HFI      -0.114000
      7 C06        -19.3220    -2.4850   -66.0740 cp         1 HFI      -0.039000
      8 C07        -19.0450    -1.5450   -67.0800 ca         1 HFI      -0.067200
      9 C09        -18.6920    -0.5040   -65.1330 ca         1 HFI       0.040800
     10 C11        -19.1870    -2.2020   -63.4850 ca         1 HFI       0.000000
     11 C12        -18.8870    -1.2880   -62.4970 ca         1 HFI      -0.239000
     12 N03        -19.5550    -3.0980   -68.7680 nb         1 HFI      -0.658000
     13 N08        -18.6680    -0.3620   -66.4930 na         1 HFI      -0.224600
     14 O14        -18.1930     0.9300   -61.8780 oh         1 HFI      -0.534100
     15 H1         -18.0800     1.4400   -64.3980 ha         1 HFI       0.133000
     16 H2         -19.0090    -1.3300   -70.4880 hc         1 HFI       0.050033
     17 H3         -19.5110    -0.0050   -69.4340 hc         1 HFI       0.050033
     18 H4         -17.8350    -0.5270   -69.4410 hc         1 HFI       0.050033
     19 H5         -20.1360    -4.9790   -68.1710 h4         1 HFI       0.019100
     20 H6         -19.9570    -4.5350   -65.7430 ha         1 HFI       0.124000
     21 H7         -19.4910    -3.2060   -63.2170 ha         1 HFI       0.118000
     22 H8         -18.9550    -1.5770   -61.4550 ha         1 HFI       0.115000
     23 H9         -18.4200     0.4840   -66.9810 hn         1 HFI       0.358000
     24 H10        -18.2970     0.5490   -60.9990 ho         1 HFI       0.468000
     25 C01        -18.8650    -0.8830   -69.5070 c3         1 HFI      -0.143400
@<TRIPOS>BOND
     1     1     7 1   
     2     1     9 ar  
     3     1    10 ar  
     4     2     3 ar  
     5     2    11 ar  
     6     2    14 1   
     7     3     9 ar  
     8     3    15 1   
     9     4     8 ar  
    10     4    12 ar  
    11     4    25 1   
    12     5     6 ar  
    13     5    12 ar  
    14     5    19 1   
    15     6     7 ar  
    16     6    20 1   
    17     7     8 ar  
    18     8    13 1   
    19     9    13 1   
    20    10    11 ar  
    21    10    21 1   
    22    11    22 1   
    23    13    23 1   
    24    14    24 1   
    25    16    25 1   
    26    17    25 1   
    27    18    25 1   
@<TRIPOS>SUBSTRUCTURE
     1 HFI         1 TEMP              0 ****  ****    0 ROOT
