@<TRIPOS>MOLECULE
HFI
   25    27     1     0     0
SMALL
No Charge or Current Charge


@<TRIPOS>ATOM
      1 C10        -19.0730    -1.7550   -64.8270 cp         1 HFI      -0.136000
      2 C13        -18.4830     0.0390   -62.7610 ca         1 HFI       0.176100
      3 C15        -18.3680     0.4740   -64.0950 ca         1 HFI      -0.194000
      4 C02        -19.1700    -1.8910   -68.4760 ca         1 HFI       0.341300
      5 C04        -19.8290    -4.0370   -67.8110 ca         1 HFI       0.305900
      6 C05        -19.7120    -3.7270   -66.4360 ca         1 HFI      -0.114000
      7 C06        -19.3010    -2.4260   -66.0990 cp         1 HFI      -0.039000
      8 C07        -19.0370    -1.5280   -67.1240 ca         1 HFI      -0.067200
      9 C09        -18.6710    -0.4500   -65.0980 ca         1 HFI       0.040800
     10 C11        -19.1910    -2.1970   -63.4970 ca         1 HFI       0.000000
     11 C12        -18.8910    -1.2830   -62.4610 ca         1 HFI      -0.239000
     12 N03        -19.5670    -3.1470   -68.8130 nb         1 HFI      -0.658000
     13 N08        -18.6530    -0.3270   -66.4960 na         1 HFI      -0.224600
     14 O14        -18.1990     0.9040   -61.7500 oh         1 HFI      -0.534100
     15 H1         -18.0560     1.4870   -64.3330 ha         1 HFI       0.133000
     16 H2         -19.0410    -1.3740   -70.5880 hc         1 HFI       0.050033
     17 H3         -19.5380    -0.0400   -69.5350 hc         1 HFI       0.050033
     18 H4         -17.8460    -0.5670   -69.5610 hc         1 HFI       0.050033
     19 H5         -20.1440    -5.0320   -68.1230 h4         1 HFI       0.019100
     20 H6         -19.9320    -4.4700   -65.6750 ha         1 HFI       0.124000
     21 H7         -19.5050    -3.2150   -63.2730 ha         1 HFI       0.118000
     22 H8         -18.9770    -1.6080   -61.4280 ha         1 HFI       0.115000
     23 H9         -18.3960     0.5220   -66.9870 hn         1 HFI       0.358000
     24 H10        -18.3330     0.4340   -60.9000 ho         1 HFI       0.468000
     25 C01        -18.8840    -0.9170   -69.6040 c3         1 HFI      -0.143400
@<TRIPOS>BOND
     1     1     7 1   
     2     1     9 ar  
     3     1    10 ar  
     4     2     3 ar  
     5     2    11 ar  
     6     2    14 1   
     7     3     9 ar  
     8     3    15 1   
     9     4     8 ar  
    10     4    12 ar  
    11     4    25 1   
    12     5     6 ar  
    13     5    12 ar  
    14     5    19 1   
    15     6     7 ar  
    16     6    20 1   
    17     7     8 ar  
    18     8    13 1   
    19     9    13 1   
    20    10    11 ar  
    21    10    21 1   
    22    11    22 1   
    23    13    23 1   
    24    14    24 1   
    25    16    25 1   
    26    17    25 1   
    27    18    25 1   
@<TRIPOS>SUBSTRUCTURE
     1 HFI         1 TEMP              0 ****  ****    0 ROOT
