@<TRIPOS>MOLECULE
HFJ
   64    66     1     0     0
SMALL
No Charge or Current Charge


@<TRIPOS>ATOM
      1 C10         12.2430    27.3720    -0.5470 ca         1 HFJ      -0.120300
      2 C13          6.9120    31.4310    -0.4690 c3         1 HFJ       0.201000
      3 C15         14.0890    26.8240    -2.6150 ca         1 HFJ       0.143100
      4 C17         12.1050    26.2120    -1.3350 ca         1 HFJ      -0.060500
      5 C20         14.2310    27.9860    -1.8270 ca         1 HFJ      -0.180000
      6 C21         13.0250    25.9430    -2.3630 ca         1 HFJ      -0.180000
      7 C22          4.6560    31.8530    -6.3750 ca         1 HFJ      -0.174000
      8 C28         16.0790    27.3430    -3.9760 c3         1 HFJ       0.165600
      9 C03          9.4680    29.2180     1.4370 c6         1 HFJ       0.188500
     10 C04         11.2480    27.6740     0.5700 c3         1 HFJ       0.219100
     11 C05          8.5610    30.4560     1.0850 c6         1 HFJ       0.162800
     12 C06          9.6260    28.7270    -0.9720 c6         1 HFJ       0.158800
     13 C07          5.9960    31.1550    -1.6400 c2         1 HFJ      -0.212200
     14 C08          6.0310    31.7910    -2.8340 ce         1 HFJ      -0.155200
     15 C09          8.7370    29.9660    -1.2920 c6         1 HFJ       0.158800
     16 C11          5.1420    31.5200    -4.0030 ca         1 HFJ      -0.088800
     17 C12         10.1520    29.4350     2.8340 c3         1 HFJ      -0.074400
     18 C14          3.5040    31.0590    -6.2690 ca         1 HFJ       0.144100
     19 C16         13.3090    28.2550    -0.7990 ca         1 HFJ      -0.060500
     20 C18          5.4690    32.0840    -5.2530 ca         1 HFJ      -0.062000
     21 C19          3.9800    30.7260    -3.8970 ca         1 HFJ      -0.062000
     22 C23          3.1660    30.4950    -5.0210 ca         1 HFJ      -0.174000
     23 C27         11.1600    30.6050     2.9740 c3         1 HFJ       0.174600
     24 C30         16.8160    26.6800    -5.1510 c3         1 HFJ      -0.094100
     25 N01         10.4010    28.8680     0.3050 n3         1 HFJ      -0.704600
     26 N02          7.7910    30.2790    -0.1800 n3         1 HFJ      -0.713600
     27 O24          2.7440    30.8680    -7.4050 os         1 HFJ      -0.341100
     28 O25         14.9600    26.5070    -3.6370 os         1 HFJ      -0.351100
     29 O26         12.4630    30.2330     2.5110 oh         1 HFJ      -0.654000
     30 H1           7.5140    32.3280    -0.6710 h1         1 HFJ       0.035200
     31 H2           6.2900    31.6530     0.4090 h1         1 HFJ       0.035200
     32 H3          11.2840    25.5210    -1.1530 ha         1 HFJ       0.119000
     33 H4          15.0410    28.6890    -1.9950 ha         1 HFJ       0.118500
     34 H5          12.9130    25.0470    -2.9680 ha         1 HFJ       0.118500
     35 H7          16.7650    27.4400    -3.1230 h1         1 HFJ       0.031700
     36 H8          15.7420    28.3440    -4.2740 h1         1 HFJ       0.031700
     37 H9          10.6100    26.7930     0.7330 h1         1 HFJ       0.041200
     38 H10         11.8330    27.8120     1.4870 h1         1 HFJ       0.041200
     39 H11          9.1920    31.3520     1.0040 h1         1 HFJ       0.033700
     40 H12          8.9780    27.8390    -0.9220 h1         1 HFJ       0.042700
     41 H13          5.2840    30.3570    -1.4370 ha         1 HFJ       0.181000
     42 H14          6.7760    32.5710    -3.0000 ha         1 HFJ       0.166000
     43 H15          9.3920    30.8270    -1.4890 h1         1 HFJ       0.041200
     44 H16          9.3530    29.6230     3.5610 hc         1 HFJ       0.047700
     45 H17         10.6220    28.5100     3.1850 hc         1 HFJ       0.047700
     46 H18         13.4190    29.1540    -0.1950 ha         1 HFJ       0.119000
     47 H19          6.3580    32.7010    -5.3570 ha         1 HFJ       0.112000
     48 H20          3.6900    30.2880    -2.9460 ha         1 HFJ       0.112000
     49 H21          2.2790    29.8800    -4.9020 ha         1 HFJ       0.121500
     50 H22         11.2230    30.8750     4.0370 h1         1 HFJ       0.013700
     51 H23         10.7970    31.4900     2.4380 h1         1 HFJ       0.013700
     52 H24          1.1000    30.0500    -8.4020 h1         1 HFJ       0.040700
     53 H25          1.7650    29.0380    -7.1040 h1         1 HFJ       0.040700
     54 H26          0.8030    30.4880    -6.7070 h1         1 HFJ       0.040700
     55 H27         17.6810    27.2850    -5.4450 hc         1 HFJ       0.046033
     56 H28         17.1740    25.6820    -4.8690 hc         1 HFJ       0.046033
     57 H29         16.1520    26.5840    -6.0180 hc         1 HFJ       0.046033
     58 H30         13.0300    31.0310     2.5900 ho         1 HFJ       0.438000
     59 H31          8.7830    28.3690     1.5770 h1         1 HFJ       0.031700
     60 H32          7.8660    30.6290     1.9200 h1         1 HFJ       0.033700
     61 H33         10.3070    28.5750    -1.8220 h1         1 HFJ       0.042700
     62 H34          8.1880    29.7610    -2.2230 h1         1 HFJ       0.041200
     63 H6           4.9200    32.2910    -7.3340 ha         1 HFJ       0.121500
     64 C29          1.5450    30.0720    -7.4000 c3         1 HFJ       0.148900
@<TRIPOS>BOND
     1     1     4 ar  
     2     1    10 1   
     3     1    19 ar  
     4     2    13 1   
     5     2    26 1   
     6     2    30 1   
     7     2    31 1   
     8     3     5 ar  
     9     3     6 ar  
    10     3    28 1   
    11     4     6 ar  
    12     4    32 1   
    13     5    19 ar  
    14     5    33 1   
    15     6    34 1   
    16     7    18 ar  
    17     7    20 ar  
    18     7    63 1   
    19     8    24 1   
    20     8    28 1   
    21     8    35 1   
    22     8    36 1   
    23     9    11 1   
    24     9    17 1   
    25     9    25 1   
    26     9    59 1   
    27    10    25 1   
    28    10    37 1   
    29    10    38 1   
    30    11    26 1   
    31    11    39 1   
    32    11    60 1   
    33    12    15 1   
    34    12    25 1   
    35    12    40 1   
    36    12    61 1   
    37    13    14 2   
    38    13    41 1   
    39    14    16 1   
    40    14    42 1   
    41    15    26 1   
    42    15    43 1   
    43    15    62 1   
    44    16    20 ar  
    45    16    21 ar  
    46    17    23 1   
    47    17    44 1   
    48    17    45 1   
    49    18    22 ar  
    50    18    27 1   
    51    19    46 1   
    52    20    47 1   
    53    21    22 ar  
    54    21    48 1   
    55    22    49 1   
    56    23    29 1   
    57    23    50 1   
    58    23    51 1   
    59    24    55 1   
    60    24    56 1   
    61    24    57 1   
    62    27    64 1   
    63    29    58 1   
    64    52    64 1   
    65    53    64 1   
    66    54    64 1   
@<TRIPOS>SUBSTRUCTURE
     1 HFJ         1 TEMP              0 ****  ****    0 ROOT
