@<TRIPOS>MOLECULE
HFJ
   64    66     1     0     0
SMALL
abcg2


@<TRIPOS>ATOM
      1 C10         12.1770    27.3230    -0.5190 ca         1 HFJ      -0.120300
      2 C13          7.0430    31.3120    -0.6290 c3         1 HFJ       0.201000
      3 C15         14.1790    26.7730    -2.4200 ca         1 HFJ       0.143100
      4 C17         12.2780    26.0700    -1.1170 ca         1 HFJ      -0.060500
      5 C20         14.0890    28.0360    -1.8350 ca         1 HFJ      -0.180000
      6 C21         13.2610    25.7900    -2.0520 ca         1 HFJ      -0.180000
      7 C22          4.3320    32.2330    -6.1750 ca         1 HFJ      -0.174000
      8 C28         16.0410    27.3920    -3.7720 c3         1 HFJ       0.165600
      9 C03          9.4810    29.2090     1.3150 c6         1 HFJ       0.188500
     10 C04         11.1270    27.6120     0.5220 c3         1 HFJ       0.219100
     11 C05          8.6490    30.4200     0.8970 c6         1 HFJ       0.162800
     12 C06          9.5650    28.5750    -0.9880 c6         1 HFJ       0.158800
     13 C07          6.0790    31.0150    -1.7310 c2         1 HFJ      -0.212200
     14 C08          5.9750    31.7570    -2.8350 ce         1 HFJ      -0.155200
     15 C09          8.7650    29.7970    -1.3760 c6         1 HFJ       0.158800
     16 C11          5.0430    31.5700    -3.9490 ca         1 HFJ      -0.088800
     17 C12         10.2090    29.5250     2.6290 c3         1 HFJ      -0.074400
     18 C14          3.3200    31.2730    -6.1610 ca         1 HFJ       0.144100
     19 C16         13.0970    28.2940    -0.8980 ca         1 HFJ      -0.060500
     20 C18          5.1700    32.3740    -5.0860 ca         1 HFJ      -0.062000
     21 C19          4.0220    30.6210    -3.9500 ca         1 HFJ      -0.062000
     22 C23          3.1710    30.4650    -5.0340 ca         1 HFJ      -0.174000
     23 C27         11.2980    30.5870     2.6160 c3         1 HFJ       0.174600
     24 C30         16.9380    26.7520    -4.8050 c3         1 HFJ      -0.094100
     25 N01         10.3500    28.8000     0.2150 n3         1 HFJ      -0.704600
     26 N02          7.8730    30.1670    -0.2980 n3         1 HFJ      -0.713600
     27 O24          2.5450    31.2000    -7.2580 os         1 HFJ      -0.341100
     28 O25         15.1040    26.4210    -3.3340 os         1 HFJ      -0.351100
     29 O26         12.5160    30.0570     2.1380 oh         1 HFJ      -0.654000
     30 H1           7.6460    32.1980    -0.8910 h1         1 HFJ       0.035200
     31 H2           6.4790    31.5780     0.2720 h1         1 HFJ       0.035200
     32 H3          11.5690    25.2930    -0.8530 ha         1 HFJ       0.119000
     33 H4          14.7800    28.8270    -2.0920 ha         1 HFJ       0.118500
     34 H5          13.3200    24.8090    -2.5070 ha         1 HFJ       0.118500
     35 H7          16.6360    27.7570    -2.9270 h1         1 HFJ       0.031700
     36 H8          15.5200    28.2550    -4.2020 h1         1 HFJ       0.031700
     37 H9          10.4790    26.7260     0.6350 h1         1 HFJ       0.041200
     38 H10         11.6240    27.7520     1.4810 h1         1 HFJ       0.041200
     39 H11          9.3130    31.2910     0.7570 h1         1 HFJ       0.033700
     40 H12          8.8750    27.7230    -0.8560 h1         1 HFJ       0.042700
     41 H13          5.4360    30.1520    -1.5770 ha         1 HFJ       0.181000
     42 H14          6.6590    32.5960    -2.9460 ha         1 HFJ       0.166000
     43 H15          9.4520    30.6230    -1.6350 h1         1 HFJ       0.041200
     44 H16          9.4350    29.8680     3.3210 hc         1 HFJ       0.047700
     45 H17         10.6070    28.6160     3.0870 hc         1 HFJ       0.047700
     46 H18         13.0440    29.2790    -0.4500 ha         1 HFJ       0.119000
     47 H19          5.9490    33.1260    -5.1210 ha         1 HFJ       0.112000
     48 H20          3.8700    29.9810    -3.0900 ha         1 HFJ       0.112000
     49 H21          2.3970    29.7110    -4.9780 ha         1 HFJ       0.121500
     50 H22         11.4170    30.9510     3.6440 h1         1 HFJ       0.013700
     51 H23         10.9790    31.4520     2.0210 h1         1 HFJ       0.013700
     52 H24          1.0310    30.3330    -8.2630 h1         1 HFJ       0.040700
     53 H25          1.9120    29.2140    -7.2080 h1         1 HFJ       0.040700
     54 H26          0.7750    30.3890    -6.5110 h1         1 HFJ       0.040700
     55 H27         17.6620    27.4850    -5.1590 hc         1 HFJ       0.046033
     56 H28         17.4910    25.9110    -4.3870 hc         1 HFJ       0.046033
     57 H29         16.3690    26.4010    -5.6650 hc         1 HFJ       0.046033
     58 H30         13.1820    30.7480     2.1920 ho         1 HFJ       0.438000
     59 H31          8.7630    28.3980     1.5450 h1         1 HFJ       0.031700
     60 H32          7.9680    30.6650     1.7160 h1         1 HFJ       0.033700
     61 H33         10.2360    28.3180    -1.8080 h1         1 HFJ       0.042700
     62 H34          8.1860    29.5700    -2.2740 h1         1 HFJ       0.041200
     63 H6           4.4550    32.8670    -7.0440 ha         1 HFJ       0.121500
     64 C29          1.5180    30.2300    -7.2960 c3         1 HFJ       0.148900
@<TRIPOS>BOND
     1     1     4 ar  
     2     1    10 1   
     3     1    19 ar  
     4     2    13 1   
     5     2    26 1   
     6     2    30 1   
     7     2    31 1   
     8     3     5 ar  
     9     3     6 ar  
    10     3    28 1   
    11     4     6 ar  
    12     4    32 1   
    13     5    19 ar  
    14     5    33 1   
    15     6    34 1   
    16     7    18 ar  
    17     7    20 ar  
    18     7    63 1   
    19     8    24 1   
    20     8    28 1   
    21     8    35 1   
    22     8    36 1   
    23     9    11 1   
    24     9    17 1   
    25     9    25 1   
    26     9    59 1   
    27    10    25 1   
    28    10    37 1   
    29    10    38 1   
    30    11    26 1   
    31    11    39 1   
    32    11    60 1   
    33    12    15 1   
    34    12    25 1   
    35    12    40 1   
    36    12    61 1   
    37    13    14 2   
    38    13    41 1   
    39    14    16 1   
    40    14    42 1   
    41    15    26 1   
    42    15    43 1   
    43    15    62 1   
    44    16    20 ar  
    45    16    21 ar  
    46    17    23 1   
    47    17    44 1   
    48    17    45 1   
    49    18    22 ar  
    50    18    27 1   
    51    19    46 1   
    52    20    47 1   
    53    21    22 ar  
    54    21    48 1   
    55    22    49 1   
    56    23    29 1   
    57    23    50 1   
    58    23    51 1   
    59    24    55 1   
    60    24    56 1   
    61    24    57 1   
    62    27    64 1   
    63    29    58 1   
    64    52    64 1   
    65    53    64 1   
    66    54    64 1   
@<TRIPOS>SUBSTRUCTURE
     1 HFJ         1 TEMP              0 ****  ****    0 ROOT
