@<TRIPOS>MOLECULE
HFK
   48    52     1     0     0
SMALL
abcg2


@<TRIPOS>ATOM
      1 C10         -0.4910     2.8240    -1.2250 c6         1 HFK      -0.065400
      2 C13         -1.5220     1.5890     1.2400 c6         1 HFK      -0.062900
      3 C15         -0.3650    -1.1520    -0.2640 c2         1 HFK       0.834100
      4 C20          4.1680    -1.1520    -0.3190 ca         1 HFK       0.086400
      5 C21          3.6340    -0.0900     0.4040 ca         1 HFK       0.015100
      6 C24          5.7560     0.8290     0.7730 ca         1 HFK      -0.107000
      7 C26          5.5420    -1.2340    -0.5030 ca         1 HFK      -0.064000
      8 C02         -4.2250     0.4730    -0.0780 c          1 HFK       0.595300
      9 C03         -5.3810    -0.5000    -0.1740 c6         1 HFK      -0.183400
     10 C04         -5.0900    -1.8170     0.5180 c6         1 HFK      -0.063400
     11 C05         -3.8260    -2.4170    -0.0610 c6         1 HFK      -0.057200
     12 C06         -2.7120    -1.4190    -0.0990 c2         1 HFK       0.188800
     13 C07         -2.8690    -0.0680    -0.1070 ce         1 HFK      -0.315400
     14 C08         -1.6370     0.8440    -0.1050 c6         1 HFK       0.251400
     15 C09         -1.6770     1.8640    -1.2600 c6         1 HFK      -0.062900
     16 C11         -0.4160     3.5540     0.1120 c6         1 HFK      -0.070400
     17 C12         -0.3520     2.5670     1.2720 c6         1 HFK      -0.065400
     18 C18          2.0760    -1.3860    -0.2740 cc         1 HFK       0.776500
     19 C23          4.3800     0.9220     0.9640 ca         1 HFK      -0.080000
     20 C25          6.3210    -0.2280     0.0550 ca         1 HFK      -0.118000
     21 N14         -0.3960     0.1010    -0.2900 n2         1 HFK      -0.657900
     22 N16         -1.4670    -1.9700    -0.1430 nu         1 HFK      -0.819200
     23 N19          3.1320    -1.9610    -0.7470 nd         1 HFK      -0.646100
     24 O01         -4.4630     1.6710    -0.0020 o          1 HFK      -0.538100
     25 O22          2.2810    -0.2630     0.4290 os         1 HFK      -0.255700
     26 H1           0.4390     2.2760    -1.3930 hc         1 HFK       0.042700
     27 H2          -0.5870     3.5440    -2.0430 hc         1 HFK       0.042700
     28 H3          -2.4530     2.1280     1.4220 hc         1 HFK       0.048450
     29 H4          -1.4210     0.8510     2.0420 hc         1 HFK       0.048450
     30 H6           5.9880    -2.0480    -1.0590 ha         1 HFK       0.131000
     31 H7          -6.2720    -0.0200     0.2330 hc         1 HFK       0.070700
     32 H8          -5.5750    -0.6790    -1.2380 hc         1 HFK       0.070700
     33 H9          -4.9620    -1.6550     1.5910 hc         1 HFK       0.054200
     34 H10         -5.9230    -2.5090     0.3970 hc         1 HFK       0.054200
     35 H11         -3.5090    -3.2920     0.5120 hc         1 HFK       0.059200
     36 H12         -4.0050    -2.7680    -1.0830 hc         1 HFK       0.059200
     37 H14         -2.5970     2.4440    -1.2020 hc         1 HFK       0.048450
     38 H15         -1.7010     1.3200    -2.2080 hc         1 HFK       0.048450
     39 H16          0.4520     4.2190     0.1340 hc         1 HFK       0.034700
     40 H17         -1.2990     4.1930     0.2250 hc         1 HFK       0.034700
     41 H18         -0.3570     3.1040     2.2250 hc         1 HFK       0.042700
     42 H19          0.5890     2.0140     1.2290 hc         1 HFK       0.042700
     43 H20          3.9320     1.7370     1.5160 ha         1 HFK       0.135000
     44 H21          7.3960    -0.2610    -0.0710 ha         1 HFK       0.116000
     45 H13         -1.3620    -2.9660    -0.0340 hn         1 HFK       0.502000
     46 N17          0.8180    -1.8760    -0.3790 nu         1 HFK      -0.846400
     47 H5           6.3980     1.5920     1.1910 ha         1 HFK       0.118000
     48 H22          0.7720    -2.7930    -0.8000 hn         1 HFK       0.523000
@<TRIPOS>BOND
     1     1    15 1   
     2     1    16 1   
     3     1    26 1   
     4     1    27 1   
     5     2    14 1   
     6     2    17 1   
     7     2    28 1   
     8     2    29 1   
     9     3    21 2   
    10     3    22 1   
    11     3    46 1   
    12     4     5 ar  
    13     4     7 ar  
    14     4    23 1   
    15     5    19 ar  
    16     5    25 1   
    17     6    19 ar  
    18     6    20 ar  
    19     6    47 1   
    20     7    20 ar  
    21     7    30 1   
    22     8     9 1   
    23     8    13 1   
    24     8    24 2   
    25     9    10 1   
    26     9    31 1   
    27     9    32 1   
    28    10    11 1   
    29    10    33 1   
    30    10    34 1   
    31    11    12 1   
    32    11    35 1   
    33    11    36 1   
    34    12    13 2   
    35    12    22 1   
    36    13    14 1   
    37    14    15 1   
    38    14    21 1   
    39    15    37 1   
    40    15    38 1   
    41    16    17 1   
    42    16    39 1   
    43    16    40 1   
    44    17    41 1   
    45    17    42 1   
    46    18    23 2   
    47    18    25 1   
    48    18    46 1   
    49    19    43 1   
    50    20    44 1   
    51    22    45 1   
    52    46    48 1   
@<TRIPOS>SUBSTRUCTURE
     1 HFK         1 TEMP              0 ****  ****    0 ROOT
