@<TRIPOS>MOLECULE
HFK
   48    52     1     0     0
SMALL
No Charge or Current Charge


@<TRIPOS>ATOM
      1 C10         -0.6640     2.9520    -1.1170 c6         1 HFK      -0.065400
      2 C13         -1.6500     1.7430     1.4320 c6         1 HFK      -0.062900
      3 C15         -0.2900    -1.0760     0.2350 c2         1 HFK       0.834100
      4 C20          4.1220    -1.2630    -0.3800 ca         1 HFK       0.086400
      5 C21          3.8080    -0.1740     0.3830 ca         1 HFK       0.015100
      6 C24          6.0870     0.5930     0.3170 ca         1 HFK      -0.107000
      7 C26          5.4320    -1.4780    -0.8290 ca         1 HFK      -0.064000
      8 C02         -4.2490     0.3960    -0.0230 c          1 HFK       0.595300
      9 C03         -5.1370    -0.5400    -0.8350 c6         1 HFK      -0.183400
     10 C04         -5.2000    -1.8950    -0.0920 c6         1 HFK      -0.063400
     11 C05         -3.7830    -2.4740     0.1910 c6         1 HFK      -0.057200
     12 C06         -2.6660    -1.4310     0.2580 c2         1 HFK       0.188800
     13 C07         -2.8500    -0.1000     0.1370 ce         1 HFK      -0.315400
     14 C08         -1.6540     0.8930     0.1180 c6         1 HFK       0.251400
     15 C09         -1.7610     1.8520    -1.1140 c6         1 HFK      -0.062900
     16 C11         -0.6870     3.7680     0.1980 c6         1 HFK      -0.070400
     17 C12         -0.5540     2.8450     1.4330 c6         1 HFK      -0.065400
     18 C18          2.0810    -1.3300     0.0490 cc         1 HFK       0.776500
     19 C23          4.7590     0.7830     0.7570 ca         1 HFK      -0.080000
     20 C25          6.4220    -0.5340    -0.4730 ca         1 HFK      -0.118000
     21 N14         -0.3600     0.1750     0.0430 n2         1 HFK      -0.657900
     22 N16         -1.3660    -1.8680     0.3430 nu         1 HFK      -0.819200
     23 N19          3.0040    -2.0420    -0.5970 nd         1 HFK      -0.646100
     24 O01         -4.6500     1.4920     0.3450 o          1 HFK      -0.538100
     25 O22          2.4920    -0.1790     0.7010 os         1 HFK      -0.255700
     26 H1           0.3280     2.4990    -1.2570 hc         1 HFK       0.042700
     27 H2          -0.8170     3.6240    -1.9730 hc         1 HFK       0.042700
     28 H3          -2.6190     2.2310     1.5820 hc         1 HFK       0.048450
     29 H4          -1.5090     1.0840     2.2990 hc         1 HFK       0.048450
     30 H6           5.6780    -2.3470    -1.4340 ha         1 HFK       0.131000
     31 H7          -6.1260    -0.0970    -1.0110 hc         1 HFK       0.070700
     32 H8          -4.6310    -0.7370    -1.7900 hc         1 HFK       0.070700
     33 H9          -5.7240    -1.7480     0.8640 hc         1 HFK       0.054200
     34 H10         -5.8000    -2.6200    -0.6600 hc         1 HFK       0.054200
     35 H11         -3.8030    -3.0590     1.1210 hc         1 HFK       0.059200
     36 H12         -3.5350    -3.1870    -0.6070 hc         1 HFK       0.059200
     37 H14         -2.7370     2.3510    -1.1350 hc         1 HFK       0.048450
     38 H15         -1.7000     1.2690    -2.0430 hc         1 HFK       0.048450
     39 H16          0.1280     4.5060     0.1940 hc         1 HFK       0.034700
     40 H17         -1.6240     4.3380     0.2620 hc         1 HFK       0.034700
     41 H18         -0.6320     3.4430     2.3520 hc         1 HFK       0.042700
     42 H19          0.4450     2.3880     1.4500 hc         1 HFK       0.042700
     43 H20          4.4830     1.6410     1.3650 ha         1 HFK       0.135000
     44 H21          7.4470    -0.6750    -0.8080 ha         1 HFK       0.116000
     45 H13         -1.1910    -2.7840     0.7380 hn         1 HFK       0.502000
     46 N17          0.8290    -1.7910     0.1540 nu         1 HFK      -0.846400
     47 H5           6.8550     1.3150     0.5860 ha         1 HFK       0.118000
     48 H22          0.7310    -2.6190    -0.4060 hn         1 HFK       0.523000
@<TRIPOS>BOND
     1     1    15 1   
     2     1    16 1   
     3     1    26 1   
     4     1    27 1   
     5     2    14 1   
     6     2    17 1   
     7     2    28 1   
     8     2    29 1   
     9     3    21 2   
    10     3    22 1   
    11     3    46 1   
    12     4     5 ar  
    13     4     7 ar  
    14     4    23 1   
    15     5    19 ar  
    16     5    25 1   
    17     6    19 ar  
    18     6    20 ar  
    19     6    47 1   
    20     7    20 ar  
    21     7    30 1   
    22     8     9 1   
    23     8    13 1   
    24     8    24 2   
    25     9    10 1   
    26     9    31 1   
    27     9    32 1   
    28    10    11 1   
    29    10    33 1   
    30    10    34 1   
    31    11    12 1   
    32    11    35 1   
    33    11    36 1   
    34    12    13 2   
    35    12    22 1   
    36    13    14 1   
    37    14    15 1   
    38    14    21 1   
    39    15    37 1   
    40    15    38 1   
    41    16    17 1   
    42    16    39 1   
    43    16    40 1   
    44    17    41 1   
    45    17    42 1   
    46    18    23 2   
    47    18    25 1   
    48    18    46 1   
    49    19    43 1   
    50    20    44 1   
    51    22    45 1   
    52    46    48 1   
@<TRIPOS>SUBSTRUCTURE
     1 HFK         1 TEMP              0 ****  ****    0 ROOT
