@<TRIPOS>MOLECULE
HFL
   27    27     1     0     0
SMALL
No Charge or Current Charge


@<TRIPOS>ATOM
      1 C1          -0.7080    -0.2420     2.4690 ca         1 HFL       0.092100
      2 C2           0.6590    -0.0860     2.1630 ca         1 HFL       0.075100
      3 C3           1.0690     0.0040     0.8150 ca         1 HFL      -0.171000
      4 C4           0.1270    -0.0650    -0.2290 ca         1 HFL      -0.024800
      5 C5          -1.2400    -0.2140     0.0860 ca         1 HFL      -0.184000
      6 C6          -1.6600    -0.3040     1.4240 ca         1 HFL       0.127100
      7 O7          -1.0870    -0.3270     3.7860 oh         1 HFL      -0.512100
      8 O8          -2.9960    -0.4490     1.6970 oh         1 HFL      -0.512100
      9 O9           1.5570    -0.0270     3.2170 os         1 HFL      -0.365100
     10 C10          0.6040     0.0370    -1.6400 ce         1 HFL      -0.124200
     11 C11         -0.0950    -0.3120    -2.7460 c2         1 HFL      -0.241200
     12 C12          0.4060    -0.2190    -4.1630 c3         1 HFL       0.420500
     13 O13         -0.5880    -0.6520    -5.0570 oh         1 HFL      -0.679000
     14 O14          0.6320     1.1280    -4.4820 oh         1 HFL      -0.679000
     15 C15          2.9740     0.1310     3.0140 c3         1 HFL       0.157900
     16 H3           2.1190     0.1220     0.5610 ha         1 HFL       0.120000
     17 H5          -1.9820    -0.2500    -0.7050 ha         1 HFL       0.118000
     18 H7          -0.2640    -0.2580     4.3190 ho         1 HFL       0.476000
     19 H8          -3.4870    -0.4700     0.8490 ho         1 HFL       0.460000
     20 H10          1.6220     0.4180    -1.7490 ha         1 HFL       0.172000
     21 H11         -1.1010    -0.7210    -2.6700 ha         1 HFL       0.180000
     22 H12          1.3260    -0.8030    -4.3080 h2         1 HFL       0.061700
     23 H13         -0.1240    -0.7880    -5.9100 ho         1 HFL       0.453000
     24 H14         -0.0710     1.6110    -4.0010 ho         1 HFL       0.453000
     25 H151         3.4960     0.1530     3.9780 h1         1 HFL       0.043033
     26 H152         3.3800    -0.7040     2.4280 h1         1 HFL       0.043033
     27 H153         3.1910     1.0690     2.4880 h1         1 HFL       0.043033
@<TRIPOS>BOND
     1     1     2 ar  
     2     1     6 ar  
     3     1     7 1   
     4     2     3 ar  
     5     2     9 1   
     6     3     4 ar  
     7     3    16 1   
     8     4     5 ar  
     9     4    10 1   
    10     5     6 ar  
    11     5    17 1   
    12     6     8 1   
    13     7    18 1   
    14     8    19 1   
    15     9    15 1   
    16    10    11 2   
    17    10    20 1   
    18    11    12 1   
    19    11    21 1   
    20    12    13 1   
    21    12    14 1   
    22    12    22 1   
    23    13    23 1   
    24    14    24 1   
    25    15    25 1   
    26    15    26 1   
    27    15    27 1   
@<TRIPOS>SUBSTRUCTURE
     1 HFL         1 TEMP              0 ****  ****    0 ROOT
