@<TRIPOS>MOLECULE
HFL
   27    27     1     0     0
SMALL
abcg2


@<TRIPOS>ATOM
      1 C1          -0.6430    -0.1300     2.4630 ca         1 HFL       0.092100
      2 C2           0.7110    -0.1070     2.1160 ca         1 HFL       0.075100
      3 C3           1.0950     0.0050     0.7870 ca         1 HFL      -0.171000
      4 C4           0.1310     0.0760    -0.2200 ca         1 HFL      -0.024800
      5 C5          -1.2180     0.0530     0.1270 ca         1 HFL      -0.184000
      6 C6          -1.6040    -0.0470     1.4560 ca         1 HFL       0.127100
      7 O7          -1.0620    -0.2310     3.7410 oh         1 HFL      -0.512100
      8 O8          -2.8960    -0.0560     1.8490 oh         1 HFL      -0.512100
      9 O9           1.5550    -0.2000     3.1660 os         1 HFL      -0.365100
     10 C10          0.5770     0.1770    -1.6100 ce         1 HFL      -0.124200
     11 C11         -0.1420    -0.0980    -2.6970 c2         1 HFL      -0.241200
     12 C12          0.3950     0.0660    -4.0870 c3         1 HFL       0.420500
     13 O13          0.5280    -1.2130    -4.6350 oh         1 HFL      -0.679000
     14 O14         -0.4310     0.8900    -4.8630 oh         1 HFL      -0.679000
     15 C15          2.9460    -0.2540     2.9170 c3         1 HFL       0.157900
     16 H3           2.1430     0.0260     0.5150 ha         1 HFL       0.120000
     17 H5          -1.9820     0.1330    -0.6370 ha         1 HFL       0.118000
     18 H7          -0.3010    -0.2980     4.3300 ho         1 HFL       0.476000
     19 H8          -3.4690    -0.1800     1.0850 ho         1 HFL       0.460000
     20 H10          1.6100     0.4920    -1.7430 ha         1 HFL       0.172000
     21 H11         -1.1660    -0.4560    -2.6140 ha         1 HFL       0.180000
     22 H12          1.3590     0.5880    -4.0550 h2         1 HFL       0.061700
     23 H13          0.9880    -1.1430    -5.4790 ho         1 HFL       0.453000
     24 H14         -1.3140     0.5020    -4.8970 ho         1 HFL       0.453000
     25 H151         3.4290    -0.3490     3.8860 h1         1 HFL       0.043033
     26 H152         3.2140    -1.1180     2.3040 h1         1 HFL       0.043033
     27 H153         3.3070     0.6540     2.4300 h1         1 HFL       0.043033
@<TRIPOS>BOND
     1     1     2 ar  
     2     1     6 ar  
     3     1     7 1   
     4     2     3 ar  
     5     2     9 1   
     6     3     4 ar  
     7     3    16 1   
     8     4     5 ar  
     9     4    10 1   
    10     5     6 ar  
    11     5    17 1   
    12     6     8 1   
    13     7    18 1   
    14     8    19 1   
    15     9    15 1   
    16    10    11 2   
    17    10    20 1   
    18    11    12 1   
    19    11    21 1   
    20    12    13 1   
    21    12    14 1   
    22    12    22 1   
    23    13    23 1   
    24    14    24 1   
    25    15    25 1   
    26    15    26 1   
    27    15    27 1   
@<TRIPOS>SUBSTRUCTURE
     1 HFL         1 TEMP              0 ****  ****    0 ROOT
