@<TRIPOS>MOLECULE
HFN
   48    51     1     0     0
SMALL
No Charge or Current Charge


@<TRIPOS>ATOM
      1 N1          -2.2100    -1.2440    -0.5780 na         1 HFN       0.133800
      2 N3           4.8040    -1.5740     0.6610 ns         1 HFN      -0.141000
      3 C4           2.4230    -1.3020     0.1140 ca         1 HFN      -0.120000
      4 C5           1.3880    -0.5700    -0.5090 ca         1 HFN       0.018000
      5 C6           1.7220     0.6330    -1.1760 ca         1 HFN      -0.102000
      6 C7           3.0490     1.0980    -1.2140 ca         1 HFN      -0.102000
      7 C8           3.7480    -0.8340     0.0840 ca         1 HFN      -0.082000
      8 C10          6.2680     0.3550     0.4320 c6         1 HFN       0.073600
      9 C13         -0.6400     1.7990     0.6500 ca         1 HFN      -0.061500
     10 C15         -1.4200     3.9340    -0.2110 ca         1 HFN       0.181000
     11 C17         -1.9490     1.8810    -1.4010 ca         1 HFN      -0.061500
     12 C21         -5.7650    -0.3750     0.8130 c3         1 HFN       0.112600
     13 F3          -3.5930     0.2820     1.4610 f          1 HFN      -0.104500
     14 F2          -4.0670    -1.8330     1.6120 f          1 HFN      -0.104500
     15 O3          -6.5420    -1.4140     0.1860 oh         1 HFN      -0.648000
     16 C19         -3.6580    -0.9620    -0.5630 c3         1 HFN       0.040600
     17 N2          -1.7660    -2.5450    -0.6160 nc         1 HFN      -0.501800
     18 C3          -0.4520    -2.4170    -0.5670 cd         1 HFN       0.279300
     19 C18          0.3930    -3.6600    -0.6810 c3         1 HFN      -0.122400
     20 C1          -0.0110    -1.0620    -0.4700 cd         1 HFN      -0.143000
     21 C2          -1.1690    -0.3240    -0.5350 cc         1 HFN      -0.068000
     22 C12         -1.2520     1.1330    -0.4310 ca         1 HFN      -0.051000
     23 C16         -2.0320     3.2810    -1.2900 ca         1 HFN      -0.156000
     24 C14         -0.7230     3.1990     0.7590 ca         1 HFN      -0.156000
     25 C9           4.0610     0.3720    -0.5740 ca         1 HFN       0.076100
     26 O1           5.3680     0.8250    -0.6120 os         1 HFN      -0.326100
     27 C11          6.1180    -1.1590     0.6800 c          1 HFN       0.541000
     28 O2           7.0630    -1.9290     0.8130 o          1 HFN      -0.532000
     29 H1           4.6230    -2.5470     0.8720 hn         1 HFN       0.165000
     30 H2           2.2020    -2.2190     0.6510 ha         1 HFN       0.123000
     31 H3           0.9620     1.2010    -1.7030 ha         1 HFN       0.124000
     32 H4           3.2910     2.0190    -1.7380 ha         1 HFN       0.132000
     33 H5           7.3090     0.5710     0.1560 h1         1 HFN       0.083700
     34 H6           6.0270     0.8650     1.3740 h1         1 HFN       0.083700
     35 H7          -0.1020     1.2300     1.4050 ha         1 HFN       0.127000
     36 H8          -2.4120     1.3810    -2.2480 ha         1 HFN       0.127000
     37 H9          -6.1120    -0.2100     1.8420 h1         1 HFN       0.049700
     38 H10         -5.8930     0.5720     0.2700 h1         1 HFN       0.049700
     39 H11         -7.4880    -1.1480     0.2400 ho         1 HFN       0.458000
     40 H12         -3.8540    -0.0830    -1.1840 h1         1 HFN       0.094200
     41 H13         -4.1770    -1.8070    -1.0310 h1         1 HFN       0.094200
     42 H14          1.2890    -3.4760    -1.2850 hc         1 HFN       0.050700
     43 H15          0.7070    -4.0120     0.3070 hc         1 HFN       0.050700
     44 H16         -0.1590    -4.4760    -1.1630 hc         1 HFN       0.050700
     45 H17         -2.5660     3.8580    -2.0400 ha         1 HFN       0.136000
     46 H18         -0.2500     3.7120     1.5930 ha         1 HFN       0.136000
     47 F1          -1.4990     5.2780    -0.1060 f          1 HFN      -0.175000
     48 C20         -4.2530    -0.7290     0.8490 c3         1 HFN       0.168000
@<TRIPOS>BOND
     1     1    16 1   
     2     1    17 1   
     3     1    21 1   
     4     2     7 1   
     5     2    27 1   
     6     2    29 1   
     7     3     4 ar  
     8     3     7 ar  
     9     3    30 1   
    10     4     5 ar  
    11     4    20 1   
    12     5     6 ar  
    13     5    31 1   
    14     6    25 ar  
    15     6    32 1   
    16     7    25 ar  
    17     8    26 1   
    18     8    27 1   
    19     8    33 1   
    20     8    34 1   
    21     9    22 ar  
    22     9    24 ar  
    23     9    35 1   
    24    10    23 ar  
    25    10    24 ar  
    26    10    47 1   
    27    11    22 ar  
    28    11    23 ar  
    29    11    36 1   
    30    12    15 1   
    31    12    37 1   
    32    12    38 1   
    33    12    48 1   
    34    13    48 1   
    35    14    48 1   
    36    15    39 1   
    37    16    40 1   
    38    16    41 1   
    39    16    48 1   
    40    17    18 2   
    41    18    19 1   
    42    18    20 1   
    43    19    42 1   
    44    19    43 1   
    45    19    44 1   
    46    20    21 2   
    47    21    22 1   
    48    23    45 1   
    49    24    46 1   
    50    25    26 1   
    51    27    28 2   
@<TRIPOS>SUBSTRUCTURE
     1 HFN         1 TEMP              0 ****  ****    0 ROOT
