@<TRIPOS>MOLECULE
HFN
   48    51     1     0     0
SMALL
bcc


@<TRIPOS>ATOM
      1 N1          -2.2020    -1.1210    -0.7250 na         1 HFN       0.112400
      2 N3           4.6450    -1.5710     0.7900 ns         1 HFN      -0.467100
      3 C4           2.3360    -1.2870     0.0870 ca         1 HFN      -0.138000
      4 C5           1.3790    -0.6010    -0.6610 ca         1 HFN       0.018000
      5 C6           1.7820     0.5160    -1.3940 ca         1 HFN      -0.120000
      6 C7           3.0990     0.9470    -1.3700 ca         1 HFN      -0.120000
      7 C8           3.6580    -0.8730     0.0940 ca         1 HFN       0.010600
      8 C10          6.0500     0.3680     0.5480 c6         1 HFN       0.050400
      9 C13         -0.7360     1.8450     0.5880 ca         1 HFN      -0.079500
     10 C15         -1.4600     3.9300    -0.3010 ca         1 HFN       0.145900
     11 C17         -1.9170     1.9290    -1.5020 ca         1 HFN      -0.079500
     12 C21         -5.4510    -0.4990     1.1760 c3         1 HFN       0.089400
     13 F3          -3.2020    -0.1200     1.6700 f          1 HFN      -0.225800
     14 F2          -3.8140    -2.1850     1.3700 f          1 HFN      -0.225800
     15 O3          -6.2820    -1.3130     0.3940 oh         1 HFN      -0.585800
     16 C19         -3.5980    -0.8260    -0.5430 c3         1 HFN       0.011300
     17 N2          -1.8150    -2.3940    -0.8290 nc         1 HFN      -0.501800
     18 C3          -0.4990    -2.3810    -0.8040 cd         1 HFN       0.344600
     19 C18          0.2810    -3.6430    -0.9400 c3         1 HFN      -0.122400
     20 C1          -0.0140    -1.0560    -0.6760 cd         1 HFN      -0.208300
     21 C2          -1.1520    -0.2730    -0.6240 cc         1 HFN      -0.017300
     22 C12         -1.2850     1.1830    -0.5080 ca         1 HFN      -0.051000
     23 C16         -2.0140     3.3080    -1.4030 ca         1 HFN      -0.174000
     24 C14         -0.8170     3.2240     0.6980 ca         1 HFN      -0.174000
     25 C9           4.0410     0.2500    -0.6350 ca         1 HFN       0.076100
     26 O1           5.3430     0.6250    -0.6500 os         1 HFN      -0.302900
     27 C11          5.8590    -1.0450     1.0630 c          1 HFN       0.683500
     28 O2           6.7150    -1.6220     1.7040 o          1 HFN      -0.607500
     29 H1           4.4250    -2.4840     1.1640 hn         1 HFN       0.331500
     30 H2           2.0530    -2.1510     0.6750 ha         1 HFN       0.141000
     31 H3           1.0630     1.0570    -1.9950 ha         1 HFN       0.142000
     32 H4           3.4030     1.8150    -1.9420 ha         1 HFN       0.150000
     33 H5           7.1050     0.5340     0.3410 h1         1 HFN       0.083700
     34 H6           5.7450     1.0630     1.3410 h1         1 HFN       0.083700
     35 H7          -0.2410     1.2790     1.3650 ha         1 HFN       0.145000
     36 H8          -2.3260     1.4330    -2.3730 ha         1 HFN       0.145000
     37 H9          -5.6510    -0.5980     2.2510 h1         1 HFN       0.049700
     38 H10         -5.5450     0.5630     0.9220 h1         1 HFN       0.049700
     39 H11         -7.1710    -0.9480     0.4160 ho         1 HFN       0.419000
     40 H12         -3.8140     0.1750    -0.9130 h1         1 HFN       0.094200
     41 H13         -4.1790    -1.5260    -1.1390 h1         1 HFN       0.094200
     42 H14          1.1080    -3.5230    -1.6410 hc         1 HFN       0.050700
     43 H15          0.7080    -3.9610     0.0130 hc         1 HFN       0.050700
     44 H16         -0.3560    -4.4490    -1.3000 hc         1 HFN       0.050700
     45 H17         -2.5040     3.8860    -2.1750 ha         1 HFN       0.154000
     46 H18         -0.3900     3.7380     1.5490 ha         1 HFN       0.154000
     47 F1          -1.5470     5.2650    -0.1970 f          1 HFN      -0.139900
     48 C20         -4.0170    -0.9150     0.9170 c3         1 HFN       0.410600
@<TRIPOS>BOND
     1     1    16 1   
     2     1    17 1   
     3     1    21 1   
     4     2     7 1   
     5     2    27 1   
     6     2    29 1   
     7     3     4 ar  
     8     3     7 ar  
     9     3    30 1   
    10     4     5 ar  
    11     4    20 1   
    12     5     6 ar  
    13     5    31 1   
    14     6    25 ar  
    15     6    32 1   
    16     7    25 ar  
    17     8    26 1   
    18     8    27 1   
    19     8    33 1   
    20     8    34 1   
    21     9    22 ar  
    22     9    24 ar  
    23     9    35 1   
    24    10    23 ar  
    25    10    24 ar  
    26    10    47 1   
    27    11    22 ar  
    28    11    23 ar  
    29    11    36 1   
    30    12    15 1   
    31    12    37 1   
    32    12    38 1   
    33    12    48 1   
    34    13    48 1   
    35    14    48 1   
    36    15    39 1   
    37    16    40 1   
    38    16    41 1   
    39    16    48 1   
    40    17    18 2   
    41    18    19 1   
    42    18    20 1   
    43    19    42 1   
    44    19    43 1   
    45    19    44 1   
    46    20    21 2   
    47    21    22 1   
    48    23    45 1   
    49    24    46 1   
    50    25    26 1   
    51    27    28 2   
@<TRIPOS>SUBSTRUCTURE
     1 HFN         1 TEMP              0 ****  ****    0 ROOT
