@<TRIPOS>MOLECULE
HFO
   19    19     1     0     0
SMALL
No Charge or Current Charge


@<TRIPOS>ATOM
      1 C1          27.4830    20.7820    20.3480 ca         1 HFO       0.073100
      2 C2          27.0310    19.5540    19.8280 ca         1 HFO       0.105100
      3 C3          25.6750    19.3740    19.5080 ca         1 HFO      -0.085000
      4 C4          24.7450    20.4270    19.7040 ca         1 HFO      -0.177600
      5 C5          25.2150    21.6550    20.2260 ca         1 HFO      -0.050000
      6 C6          26.5740    21.8310    20.5450 ca         1 HFO      -0.179000
      7 O7          28.8070    20.9510    20.6580 oh         1 HFO      -0.554100
      8 O8          27.9210    18.5360    19.6380 oh         1 HFO      -0.535100
      9 C9          23.2730    20.2670    19.3680 c          1 HFO       0.587700
     10 O10         22.4850    21.1890    19.5440 o          1 HFO      -0.528100
     11 C11         22.7640    18.9390    18.8030 c3         1 HFO      -0.195100
     12 H1          25.3640    18.4120    19.1100 ha         1 HFO       0.132000
     13 H2          24.5270    22.4840    20.3880 ha         1 HFO       0.138000
     14 H3          26.9090    22.7850    20.9450 ha         1 HFO       0.118000
     15 H4          28.9360    21.8620    21.0040 ho         1 HFO       0.480000
     16 H5          28.7960    18.8830    19.9260 ho         1 HFO       0.483000
     17 H6          21.6860    18.9530    18.6040 hc         1 HFO       0.062033
     18 H7          23.3340    18.6910    17.9020 hc         1 HFO       0.062033
     19 H8          23.0330    18.1300    19.4910 hc         1 HFO       0.062033
@<TRIPOS>BOND
     1     1     2 ar  
     2     1     6 ar  
     3     1     7 1   
     4     2     3 ar  
     5     2     8 1   
     6     3     4 ar  
     7     3    12 1   
     8     4     5 ar  
     9     4     9 1   
    10     5     6 ar  
    11     5    13 1   
    12     6    14 1   
    13     7    15 1   
    14     8    16 1   
    15     9    10 2   
    16     9    11 1   
    17    11    17 1   
    18    11    18 1   
    19    11    19 1   
@<TRIPOS>SUBSTRUCTURE
     1 HFO         1 TEMP              0 ****  ****    0 ROOT
