@<TRIPOS>MOLECULE
HFO
   19    19     1     0     0
SMALL
bcc


@<TRIPOS>ATOM
      1 C1          27.4370    20.8120    20.3520 ca         1 HFO       0.073100
      2 C2          27.0060    19.5820    19.8340 ca         1 HFO       0.105100
      3 C3          25.6710    19.4110    19.5180 ca         1 HFO      -0.103000
      4 C4          24.7460    20.4420    19.7070 ca         1 HFO      -0.177600
      5 C5          25.1880    21.6580    20.2240 ca         1 HFO      -0.068000
      6 C6          26.5220    21.8390    20.5430 ca         1 HFO      -0.197000
      7 O7          28.7480    20.9080    20.6360 oh         1 HFO      -0.515100
      8 O8          27.8590    18.5570    19.6360 oh         1 HFO      -0.496100
      9 C9          23.3110    20.2720    19.3690 c          1 HFO       0.587700
     10 O10         22.5250    21.1860    19.5250 o          1 HFO      -0.528100
     11 C11         22.8580    18.9420    18.8280 c3         1 HFO      -0.195100
     12 H1          25.3640    18.4530    19.1180 ha         1 HFO       0.150000
     13 H2          24.4900    22.4690    20.3810 ha         1 HFO       0.156000
     14 H3          26.8600    22.7870    20.9470 ha         1 HFO       0.136000
     15 H4          28.9690    21.7800    20.9840 ho         1 HFO       0.441000
     16 H5          28.7590    18.8110    19.8720 ho         1 HFO       0.444000
     17 H6          21.7900    18.9590    18.6280 hc         1 HFO       0.062033
     18 H7          23.3840    18.6970    17.9030 hc         1 HFO       0.062033
     19 H8          23.0710    18.1400    19.5370 hc         1 HFO       0.062033
@<TRIPOS>BOND
     1     1     2 ar  
     2     1     6 ar  
     3     1     7 1   
     4     2     3 ar  
     5     2     8 1   
     6     3     4 ar  
     7     3    12 1   
     8     4     5 ar  
     9     4     9 1   
    10     5     6 ar  
    11     5    13 1   
    12     6    14 1   
    13     7    15 1   
    14     8    16 1   
    15     9    10 2   
    16     9    11 1   
    17    11    17 1   
    18    11    18 1   
    19    11    19 1   
@<TRIPOS>SUBSTRUCTURE
     1 HFO         1 TEMP              0 ****  ****    0 ROOT
