@<TRIPOS>MOLECULE
HFP
   51    50     1     0     0
SMALL
No Charge or Current Charge


@<TRIPOS>ATOM
      1 P           -1.2610    -0.1510    -5.4630 p5         1 HFP       1.276500
      2 O1P         -0.9100    -1.5860    -5.6710 o          1 HFP      -0.917833
      3 O2P         -2.7450     0.0050    -5.4200 o          1 HFP      -0.917833
      4 O3P         -0.7040     0.6830    -6.5700 o          1 HFP      -0.917833
      5 C1          -0.5220     0.4890    -3.8170 c3         1 HFP      -0.160700
      6 O1          -0.5080     1.9430    -3.6710 oh         1 HFP      -0.742000
      7 C2           0.9170    -0.0670    -3.5850 c3         1 HFP      -0.054400
      8 C3           1.5860     0.2630    -2.2130 c3         1 HFP      -0.062700
      9 C4           3.0660    -0.1980    -2.2220 c3         1 HFP      -0.079100
     10 C5           0.7920    -0.3270    -1.0080 c3         1 HFP      -0.069400
     11 C6           1.3550     0.0350     0.3900 c3         1 HFP      -0.073400
     12 C7           0.4590    -0.4710     1.5480 c3         1 HFP      -0.076400
     13 C8           0.9030    -0.0290     2.9720 c3         1 HFP      -0.058700
     14 C9           2.3040    -0.5810     3.3490 c3         1 HFP      -0.082100
     15 C10         -0.1830    -0.4160     4.0180 c3         1 HFP      -0.075400
     16 C11          0.0420     0.1470     5.4430 c3         1 HFP      -0.072400
     17 C12         -1.1350    -0.1590     6.4010 c3         1 HFP      -0.074400
     18 C13         -1.0070     0.4730     7.8150 c3         1 HFP      -0.060700
     19 C14         -2.3010     0.2600     8.6320 c3         1 HFP      -0.085100
     20 C15          0.2250    -0.0410     8.5990 c3         1 HFP      -0.085100
     21 H1          -1.1800     0.0560    -3.0540 h1         1 HFP       0.011700
     22 HO1         -0.4360     2.3130    -4.5850 ho         1 HFP       0.473000
     23 H21          1.5600     0.3060    -4.3920 hc         1 HFP       0.038200
     24 H22          0.8960    -1.1580    -3.6950 hc         1 HFP       0.038200
     25 H3           1.5970     1.3540    -2.1010 hc         1 HFP       0.049700
     26 H41          3.1350    -1.2920    -2.2380 hc         1 HFP       0.006367
     27 H42          3.5880     0.1890    -3.1060 hc         1 HFP       0.006367
     28 H43          3.6040     0.1710    -1.3420 hc         1 HFP       0.006367
     29 H51          0.7470    -1.4190    -1.1040 hc         1 HFP       0.042700
     30 H52         -0.2410     0.0340    -1.0520 hc         1 HFP       0.042700
     31 H61          1.4620     1.1240     0.4650 hc         1 HFP       0.024700
     32 H62          2.3540    -0.4000     0.4950 hc         1 HFP       0.024700
     33 H71          0.4070    -1.5670     1.5090 hc         1 HFP       0.038200
     34 H72         -0.5610    -0.1060     1.3710 hc         1 HFP       0.038200
     35 H8           0.9730     1.0660     2.9660 hc         1 HFP       0.041700
     36 H91          2.2980    -1.6780     3.3720 hc         1 HFP       0.024700
     37 H92          3.0670    -0.2560     2.6330 hc         1 HFP       0.024700
     38 H93          2.6250    -0.2180     4.3320 hc         1 HFP       0.024700
     39 H101        -0.2600    -1.5090     4.0720 hc         1 HFP       0.038200
     40 H102        -1.1560    -0.0540     3.6600 hc         1 HFP       0.038200
     41 H111         0.1860     1.2330     5.3830 hc         1 HFP       0.033200
     42 H112         0.9600    -0.2820     5.8580 hc         1 HFP       0.033200
     43 H121        -1.2440    -1.2460     6.4990 hc         1 HFP       0.037700
     44 H122        -2.0600     0.2070     5.9380 hc         1 HFP       0.037700
     45 H13         -0.8840     1.5560     7.6850 hc         1 HFP       0.041700
     46 H141        -2.2310     0.7560     9.6080 hc         1 HFP       0.027867
     47 H142        -3.1670     0.6790     8.1050 hc         1 HFP       0.027867
     48 H143        -2.4860    -0.8070     8.8020 hc         1 HFP       0.027867
     49 H151         0.1980    -1.1340     8.6960 hc         1 HFP       0.027867
     50 H152         1.1590     0.2400     8.1000 hc         1 HFP       0.027867
     51 H153         0.2490     0.3900     9.6070 hc         1 HFP       0.027867
@<TRIPOS>BOND
     1     1     2 1   
     2     1     3 1   
     3     1     4 1   
     4     1     5 1   
     5     5     6 1   
     6     5     7 1   
     7     5    21 1   
     8     6    22 1   
     9     7     8 1   
    10     7    23 1   
    11     7    24 1   
    12     8     9 1   
    13     8    10 1   
    14     8    25 1   
    15     9    26 1   
    16     9    27 1   
    17     9    28 1   
    18    10    11 1   
    19    10    29 1   
    20    10    30 1   
    21    11    12 1   
    22    11    31 1   
    23    11    32 1   
    24    12    13 1   
    25    12    33 1   
    26    12    34 1   
    27    13    14 1   
    28    13    15 1   
    29    13    35 1   
    30    14    36 1   
    31    14    37 1   
    32    14    38 1   
    33    15    16 1   
    34    15    39 1   
    35    15    40 1   
    36    16    17 1   
    37    16    41 1   
    38    16    42 1   
    39    17    18 1   
    40    17    43 1   
    41    17    44 1   
    42    18    19 1   
    43    18    20 1   
    44    18    45 1   
    45    19    46 1   
    46    19    47 1   
    47    19    48 1   
    48    20    49 1   
    49    20    50 1   
    50    20    51 1   
@<TRIPOS>SUBSTRUCTURE
     1 HFP         1 TEMP              0 ****  ****    0 ROOT
