@<TRIPOS>MOLECULE
HFP
   51    50     1     0     0
SMALL
abcg2


@<TRIPOS>ATOM
      1 P           -1.2740    -0.1720    -5.3530 p5         1 HFP       1.276500
      2 O1P         -0.8580    -1.6250    -5.5910 o          1 HFP      -0.917833
      3 O2P         -2.7850     0.0250    -5.1920 o          1 HFP      -0.917833
      4 O3P         -0.6290     0.8430    -6.3320 o          1 HFP      -0.917833
      5 C1          -0.4860     0.4080    -3.7490 c3         1 HFP      -0.160700
      6 O1          -0.3280     1.8220    -3.8800 oh         1 HFP      -0.742000
      7 C2           0.8530    -0.2560    -3.4580 c3         1 HFP      -0.054400
      8 C3           1.5470     0.1930    -2.1670 c3         1 HFP      -0.062700
      9 C4           3.0130    -0.2330    -2.1830 c3         1 HFP      -0.079100
     10 C5           0.8190    -0.3490    -0.9350 c3         1 HFP      -0.069400
     11 C6           1.3110     0.1840     0.4060 c3         1 HFP      -0.073400
     12 C7           0.4730    -0.3340     1.5690 c3         1 HFP      -0.076400
     13 C8           0.8890     0.1660     2.9560 c3         1 HFP      -0.058700
     14 C9           2.2610    -0.3660     3.3600 c3         1 HFP      -0.082100
     15 C10         -0.1920    -0.2040     3.9750 c3         1 HFP      -0.075400
     16 C11          0.0690     0.2410     5.4100 c3         1 HFP      -0.072400
     17 C12         -1.1170    -0.0550     6.3210 c3         1 HFP      -0.074400
     18 C13         -0.9500     0.3820     7.7770 c3         1 HFP      -0.060700
     19 C14         -2.2480     0.1600     8.5470 c3         1 HFP      -0.085100
     20 C15          0.2060    -0.3370     8.4680 c3         1 HFP      -0.085100
     21 H1          -1.1710     0.2260    -2.9100 h1         1 HFP       0.011700
     22 HO1         -0.2620     1.9160    -4.8520 ho         1 HFP       0.473000
     23 H21          1.5190    -0.0680    -4.3090 hc         1 HFP       0.038200
     24 H22          0.7130    -1.3410    -3.4280 hc         1 HFP       0.038200
     25 H3           1.5150     1.2890    -2.1270 hc         1 HFP       0.049700
     26 H41          3.1030    -1.3220    -2.2170 hc         1 HFP       0.006367
     27 H42          3.5250     0.1650    -3.0620 hc         1 HFP       0.006367
     28 H43          3.5590     0.1150    -1.3040 hc         1 HFP       0.006367
     29 H51          0.8930    -1.4440    -0.9370 hc         1 HFP       0.042700
     30 H52         -0.2490    -0.1250    -1.0210 hc         1 HFP       0.042700
     31 H61          1.2770     1.2800     0.3960 hc         1 HFP       0.024700
     32 H62          2.3600    -0.0850     0.5520 hc         1 HFP       0.024700
     33 H71          0.4920    -1.4310     1.5680 hc         1 HFP       0.038200
     34 H72         -0.5720    -0.0540     1.3950 hc         1 HFP       0.038200
     35 H8           0.9480     1.2620     2.9140 hc         1 HFP       0.041700
     36 H91          2.2350    -1.4520     3.4890 hc         1 HFP       0.024700
     37 H92          3.0190    -0.1430     2.6080 hc         1 HFP       0.024700
     38 H93          2.6050     0.0690     4.2990 hc         1 HFP       0.024700
     39 H101        -0.3370    -1.2910     3.9590 hc         1 HFP       0.038200
     40 H102        -1.1410     0.2290     3.6390 hc         1 HFP       0.038200
     41 H111         0.2850     1.3160     5.4310 hc         1 HFP       0.033200
     42 H112         0.9630    -0.2570     5.7920 hc         1 HFP       0.033200
     43 H121        -1.3310    -1.1310     6.2970 hc         1 HFP       0.037700
     44 H122        -2.0060     0.4360     5.9090 hc         1 HFP       0.037700
     45 H13         -0.7330     1.4570     7.7840 hc         1 HFP       0.041700
     46 H141        -2.1660     0.5100     9.5780 hc         1 HFP       0.027867
     47 H142        -3.0840     0.6870     8.0820 hc         1 HFP       0.027867
     48 H143        -2.5050    -0.9020     8.5800 hc         1 HFP       0.027867
     49 H151         0.0700    -1.4210     8.4250 hc         1 HFP       0.027867
     50 H152         1.1690    -0.1060     8.0130 hc         1 HFP       0.027867
     51 H153         0.2690    -0.0560     9.5210 hc         1 HFP       0.027867
@<TRIPOS>BOND
     1     1     2 1   
     2     1     3 1   
     3     1     4 1   
     4     1     5 1   
     5     5     6 1   
     6     5     7 1   
     7     5    21 1   
     8     6    22 1   
     9     7     8 1   
    10     7    23 1   
    11     7    24 1   
    12     8     9 1   
    13     8    10 1   
    14     8    25 1   
    15     9    26 1   
    16     9    27 1   
    17     9    28 1   
    18    10    11 1   
    19    10    29 1   
    20    10    30 1   
    21    11    12 1   
    22    11    31 1   
    23    11    32 1   
    24    12    13 1   
    25    12    33 1   
    26    12    34 1   
    27    13    14 1   
    28    13    15 1   
    29    13    35 1   
    30    14    36 1   
    31    14    37 1   
    32    14    38 1   
    33    15    16 1   
    34    15    39 1   
    35    15    40 1   
    36    16    17 1   
    37    16    41 1   
    38    16    42 1   
    39    17    18 1   
    40    17    43 1   
    41    17    44 1   
    42    18    19 1   
    43    18    20 1   
    44    18    45 1   
    45    19    46 1   
    46    19    47 1   
    47    19    48 1   
    48    20    49 1   
    49    20    50 1   
    50    20    51 1   
@<TRIPOS>SUBSTRUCTURE
     1 HFP         1 TEMP              0 ****  ****    0 ROOT
