@<TRIPOS>MOLECULE
HFR
   57    60     1     0     0
SMALL
bcc


@<TRIPOS>ATOM
      1 C4           0.6350   -31.4660   -13.3120 cc         1 HFR       0.391700
      2 C14          3.9200   -33.2540   -14.9580 c3         1 HFR       0.181400
      3 C5           2.0000   -26.3340   -11.8880 ca         1 HFR      -0.087000
      4 C6           0.8960   -25.8390   -11.2110 ca         1 HFR      -0.128000
      5 C11          3.0880   -27.2520   -13.9760 c3         1 HFR       0.229800
      6 C7          -0.3130   -25.6490   -11.8670 ca         1 HFR      -0.096000
      7 C8          -0.3900   -25.9640   -13.2130 ca         1 HFR      -0.029900
      8 C9           0.7050   -26.4610   -13.9060 ca         1 HFR      -0.099000
      9 C10          1.9110   -26.6490   -13.2410 ca         1 HFR      -0.096300
     10 C12          3.1290   -28.7500   -13.6180 c3         1 HFR      -0.163400
     11 C13          4.1790   -29.5170   -14.3810 c          1 HFR       0.704100
     12 N1          -0.8660   -28.7760   -10.1750 nb         1 HFR      -0.823000
     13 N2           1.1110   -30.1150   -10.1300 nb         1 HFR      -0.758000
     14 C3          -1.2110   -29.1800   -11.4020 ca         1 HFR       0.781200
     15 N3           4.3200   -26.5980   -13.5780 n8         1 HFR      -0.893800
     16 O1           5.3440   -29.5710   -14.0710 o          1 HFR      -0.518100
     17 N4           3.6960   -30.1390   -15.5200 ns         1 HFR      -0.684300
     18 S1           4.5810   -31.1990   -16.4450 s6         1 HFR       1.579100
     19 O2           3.6580   -31.6800   -17.4420 o          1 HFR      -0.607300
     20 O3           5.8460   -30.6280   -16.8110 o          1 HFR      -0.607300
     21 O4           4.9520   -32.3600   -15.4310 os         1 HFR      -0.532500
     22 C15          3.8840   -33.2360   -13.4520 c5         1 HFR       0.123100
     23 O5           3.4860   -31.9560   -12.9930 os         1 HFR      -0.410600
     24 C16          2.8330   -34.1950   -12.8920 c5         1 HFR       0.126100
     25 O6           3.3360   -35.4910   -12.8570 oh         1 HFR      -0.556800
     26 C17          2.5220   -33.5500   -11.5370 c5         1 HFR       0.075100
     27 O7           3.5140   -33.9430   -10.6330 oh         1 HFR      -0.561800
     28 C18          2.6460   -32.0520   -11.8740 c5         1 HFR       0.224800
     29 N5           1.3890   -31.3980   -12.1700 na         1 HFR      -0.279000
     30 N6          -0.4210   -30.7100   -13.2790 nd         1 HFR      -0.541100
     31 C2          -0.3720   -30.1050   -12.0500 ca         1 HFR      -0.232200
     32 C1           0.7490   -30.5150   -11.3470 ca         1 HFR       0.457800
     33 C19          0.2490   -29.2490    -9.6260 ca         1 HFR       0.716900
     34 N7          -2.3380   -28.7190   -11.9500 nv         1 HFR      -0.935500
     35 H1           0.9160   -32.0850   -14.1510 h5         1 HFR       0.061800
     36 H2           2.9430   -32.9880   -15.3690 h1         1 HFR       0.066700
     37 H3           4.1770   -34.2520   -15.3120 h1         1 HFR       0.066700
     38 H4           2.9370   -26.4750   -11.3660 ha         1 HFR       0.159000
     39 H5           0.9700   -25.6010   -10.1580 ha         1 HFR       0.141000
     40 H6           2.8860   -27.1730   -15.0540 h1         1 HFR       0.025700
     41 H7          -1.1700   -25.2630   -11.3310 ha         1 HFR       0.148000
     42 H8           0.6280   -26.7020   -14.9600 ha         1 HFR       0.144000
     43 H9           3.3410   -28.8540   -12.5520 hc         1 HFR       0.079200
     44 H10          2.1400   -29.1670   -13.8080 hc         1 HFR       0.079200
     45 H11          5.1070   -26.9880   -14.0800 hn         1 HFR       0.356800
     46 H12          4.2780   -25.6210   -13.8410 hn         1 HFR       0.356800
     47 H14          2.7020   -30.1240   -15.7190 hn         1 HFR       0.341500
     48 H15          4.8720   -33.4920   -13.0500 h1         1 HFR       0.117700
     49 H16          1.9260   -34.1330   -13.5110 h1         1 HFR       0.037700
     50 H17          2.6090   -36.1060   -12.7140 ho         1 HFR       0.419000
     51 H18          1.5150   -33.7910   -11.1760 h1         1 HFR       0.067700
     52 H19          3.3020   -33.5830    -9.7650 ho         1 HFR       0.418000
     53 H20          3.0690   -31.5050   -11.0260 h2         1 HFR       0.118700
     54 H21          0.4750   -28.8740    -8.6330 h5         1 HFR       0.049100
     55 H22         -2.8300   -27.9610   -11.5060 hn         1 HFR       0.451300
     56 H23         -2.5430   -28.9000   -12.9170 hn         1 HFR       0.451300
     57 BR          -2.0230   -25.7080   -14.1320 br         1 HFR      -0.110100
@<TRIPOS>BOND
     1     1    29 1   
     2     1    30 2   
     3     1    35 1   
     4     2    21 1   
     5     2    22 1   
     6     2    36 1   
     7     2    37 1   
     8     3     4 ar  
     9     3     9 ar  
    10     3    38 1   
    11     4     6 ar  
    12     4    39 1   
    13     5     9 1   
    14     5    10 1   
    15     5    15 1   
    16     5    40 1   
    17     6     7 ar  
    18     6    41 1   
    19     7     8 ar  
    20     7    57 1   
    21     8     9 ar  
    22     8    42 1   
    23    10    11 1   
    24    10    43 1   
    25    10    44 1   
    26    11    16 2   
    27    11    17 1   
    28    12    14 ar  
    29    12    33 ar  
    30    13    32 ar  
    31    13    33 ar  
    32    14    31 ar  
    33    14    34 1   
    34    15    45 1   
    35    15    46 1   
    36    17    18 1   
    37    17    47 1   
    38    18    19 2   
    39    18    20 2   
    40    18    21 1   
    41    22    23 1   
    42    22    24 1   
    43    22    48 1   
    44    23    28 1   
    45    24    25 1   
    46    24    26 1   
    47    24    49 1   
    48    25    50 1   
    49    26    27 1   
    50    26    28 1   
    51    26    51 1   
    52    27    52 1   
    53    28    29 1   
    54    28    53 1   
    55    29    32 1   
    56    30    31 1   
    57    31    32 ar  
    58    33    54 1   
    59    34    55 1   
    60    34    56 1   
@<TRIPOS>SUBSTRUCTURE
     1 HFR         1 TEMP              0 ****  ****    0 ROOT
