@<TRIPOS>MOLECULE
HFR
   57    60     1     0     0
SMALL
No Charge or Current Charge


@<TRIPOS>ATOM
      1 C4           0.2740   -32.1530   -13.4170 cc         1 HFR       0.391700
      2 C14          4.8460   -33.4700   -14.5120 c3         1 HFR       0.204600
      3 C5           2.4680   -25.9810   -11.6420 ca         1 HFR      -0.069000
      4 C6           1.6240   -25.3660   -10.6990 ca         1 HFR      -0.110000
      5 C11          2.9010   -26.9450   -13.9720 c3         1 HFR       0.229800
      6 C7           0.2990   -25.0470   -11.0420 ca         1 HFR      -0.078000
      7 C8          -0.1780   -25.3440   -12.3290 ca         1 HFR      -0.029900
      8 C9           0.6620   -25.9590   -13.2730 ca         1 HFR      -0.081000
      9 C10          1.9930   -26.2850   -12.9360 ca         1 HFR      -0.096300
     10 C12          3.5360   -28.2520   -13.4610 c3         1 HFR      -0.163400
     11 C13          4.0400   -29.1150   -14.6150 c          1 HFR       0.637100
     12 N1          -0.7070   -28.3770   -11.1650 nb         1 HFR      -0.297000
     13 N2           1.1530   -29.8880   -10.8140 nb         1 HFR      -0.232000
     14 C3          -1.1260   -29.1480   -12.1790 ca         1 HFR       0.452900
     15 N3           3.9370   -25.9950   -14.3940 n8         1 HFR      -1.004200
     16 O1           5.0360   -28.8240   -15.2570 o          1 HFR      -0.518100
     17 N4           3.3100   -30.2330   -14.8420 ns         1 HFR      -0.617300
     18 S1           3.6800   -31.4910   -15.8550 s6         1 HFR       1.437500
     19 O2           2.5570   -32.4320   -15.8300 o          1 HFR      -0.536500
     20 O3           4.1830   -30.9500   -17.1210 o          1 HFR      -0.536500
     21 O4           4.9470   -32.1140   -15.0090 os         1 HFR      -0.555700
     22 C15          4.0290   -33.5680   -13.1780 c5         1 HFR       0.146300
     23 O5           3.4160   -32.3150   -12.7820 os         1 HFR      -0.457000
     24 C16          2.8320   -34.5600   -13.2190 c5         1 HFR       0.149300
     25 O6           3.2230   -35.9340   -13.1830 oh         1 HFR      -0.679000
     26 C17          2.1170   -34.1680   -11.8950 c5         1 HFR       0.098300
     27 O7           2.7800   -34.7970   -10.7750 oh         1 HFR      -0.684000
     28 C18          2.2930   -32.6000   -11.9170 c5         1 HFR       0.277300
     29 N5           1.1570   -31.8060   -12.3870 na         1 HFR      -0.308300
     30 N6          -0.7090   -31.2440   -13.5500 nd         1 HFR      -0.541100
     31 C2          -0.4260   -30.3150   -12.5450 ca         1 HFR      -0.101600
     32 C1           0.7010   -30.6420   -11.8350 ca         1 HFR       0.129500
     33 C19          0.4200   -28.7840   -10.5330 ca         1 HFR       0.190900
     34 N7          -2.2550   -28.7400   -12.8170 nv         1 HFR      -1.045900
     35 H1           0.3950   -33.0470   -14.0170 h5         1 HFR       0.061800
     36 H2           4.4180   -34.1440   -15.2660 h1         1 HFR       0.066700
     37 H3           5.8530   -33.8530   -14.3000 h1         1 HFR       0.066700
     38 H4           3.4950   -26.2130   -11.3680 ha         1 HFR       0.141000
     39 H5           1.9980   -25.1350    -9.7040 ha         1 HFR       0.123000
     40 H6           2.2930   -27.1870   -14.8560 h1         1 HFR       0.025700
     41 H7          -0.3540   -24.5740   -10.3130 ha         1 HFR       0.130000
     42 H8           0.2780   -26.1850   -14.2650 ha         1 HFR       0.126000
     43 H9           4.3760   -28.0160   -12.7980 hc         1 HFR       0.079200
     44 H10          2.7760   -28.8040   -12.8980 hc         1 HFR       0.079200
     45 H11          4.4960   -26.4240   -15.1410 hn         1 HFR       0.412000
     46 H12          3.4840   -25.1970   -14.8540 hn         1 HFR       0.412000
     47 H14          2.5870   -30.4970   -14.1980 hn         1 HFR       0.341500
     48 H15          4.7310   -33.8630   -12.3850 h1         1 HFR       0.117700
     49 H16          2.1930   -34.3680   -14.0910 h1         1 HFR       0.037700
     50 H17          3.2740   -36.1290   -12.2140 ho         1 HFR       0.518000
     51 H18          1.0550   -34.4520   -11.9190 h1         1 HFR       0.067700
     52 H19          2.2350   -34.6340    -9.9670 ho         1 HFR       0.517000
     53 H20          2.5090   -32.2420   -10.9020 h2         1 HFR       0.118700
     54 H21          0.7710   -28.1620    -9.7110 h5         1 HFR       0.049100
     55 H22         -2.5280   -27.7670   -12.7180 hn         1 HFR       0.506500
     56 H23         -2.4680   -29.1860   -13.7050 hn         1 HFR       0.506500
     57 Br          -1.9840   -24.9240   -12.7960 br         1 HFR      -0.110100
@<TRIPOS>BOND
     1     1    29 1   
     2     1    30 2   
     3     1    35 1   
     4     2    21 1   
     5     2    22 1   
     6     2    36 1   
     7     2    37 1   
     8     3     4 ar  
     9     3     9 ar  
    10     3    38 1   
    11     4     6 ar  
    12     4    39 1   
    13     5     9 1   
    14     5    10 1   
    15     5    15 1   
    16     5    40 1   
    17     6     7 ar  
    18     6    41 1   
    19     7     8 ar  
    20     7    57 1   
    21     8     9 ar  
    22     8    42 1   
    23    10    11 1   
    24    10    43 1   
    25    10    44 1   
    26    11    16 2   
    27    11    17 1   
    28    12    14 ar  
    29    12    33 ar  
    30    13    32 ar  
    31    13    33 ar  
    32    14    31 ar  
    33    14    34 1   
    34    15    45 1   
    35    15    46 1   
    36    17    18 1   
    37    17    47 1   
    38    18    19 2   
    39    18    20 2   
    40    18    21 1   
    41    22    23 1   
    42    22    24 1   
    43    22    48 1   
    44    23    28 1   
    45    24    25 1   
    46    24    26 1   
    47    24    49 1   
    48    25    50 1   
    49    26    27 1   
    50    26    28 1   
    51    26    51 1   
    52    27    52 1   
    53    28    29 1   
    54    28    53 1   
    55    29    32 1   
    56    30    31 1   
    57    31    32 ar  
    58    33    54 1   
    59    34    55 1   
    60    34    56 1   
@<TRIPOS>SUBSTRUCTURE
     1 HFR         1 TEMP              0 ****  ****    0 ROOT
