@<TRIPOS>MOLECULE
HFT
   31    31     1     0     0
SMALL
No Charge or Current Charge


@<TRIPOS>ATOM
      1 F1           2.1140     2.5110    -1.1760 f          1 HFT      -0.101000
      2 C7           2.6480     1.2790    -1.0030 c3         1 HFT       0.367300
      3 F2           3.6870     1.4440    -0.1520 f          1 HFT      -0.101000
      4 F3           3.1620     0.9150    -2.1990 f          1 HFT      -0.101000
      5 C3           1.6170     0.2480    -0.4850 ca         1 HFT      -0.104300
      6 C2           0.2350     0.5410    -0.5860 ca         1 HFT      -0.146000
      7 C4           2.0020    -0.9920     0.1080 ca         1 HFT      -0.166200
      8 N1           3.4290    -1.4200     0.2320 no         1 HFT       0.696200
      9 O2           3.7850    -1.9120     1.3100 o          1 HFT      -0.382500
     10 O1           4.1160    -1.4500    -0.7960 o          1 HFT      -0.382500
     11 C5           1.0110    -1.8690     0.5990 ca         1 HFT      -0.028000
     12 C6          -0.3500    -1.5480     0.4950 ca         1 HFT      -0.125000
     13 C1          -0.7510    -0.3380    -0.1020 ca         1 HFT       0.025000
     14 N9          -2.1080     0.0570    -0.2550 ns         1 HFT      -0.152000
     15 C10         -3.3070    -0.5000     0.1840 c          1 HFT       0.616100
     16 O10         -3.3560    -1.5240     0.8610 o          1 HFT      -0.521100
     17 C11         -4.6250     0.2780    -0.2320 c3         1 HFT       0.109000
     18 C12         -4.3550     1.5400    -1.1000 c3         1 HFT      -0.128100
     19 C13         -5.4100     0.6850     1.0400 c3         1 HFT      -0.128100
     20 O11         -5.4900    -0.5750    -1.0110 oh         1 HFT      -0.622000
     21 H2          -0.0880     1.4720    -1.0470 ha         1 HFT       0.136000
     22 H5           1.2960    -2.8170     1.0530 ha         1 HFT       0.155000
     23 H6          -1.0720    -2.2630     0.8760 ha         1 HFT       0.167000
     24 HN9         -2.2220     0.9070    -0.7910 hn         1 HFT       0.158000
     25 H121        -3.7390     2.2690    -0.5580 hc         1 HFT       0.051367
     26 H122        -3.8430     1.2770    -2.0340 hc         1 HFT       0.051367
     27 H123        -5.2940     2.0410    -1.3670 hc         1 HFT       0.051367
     28 H131        -6.3300     1.2260     0.7860 hc         1 HFT       0.051367
     29 H132        -5.6890    -0.1970     1.6300 hc         1 HFT       0.051367
     30 H133        -4.8000     1.3370     1.6780 hc         1 HFT       0.051367
     31 H11         -6.3190    -0.0770    -1.1830 ho         1 HFT       0.451000
@<TRIPOS>BOND
     1     1     2 1   
     2     2     3 1   
     3     2     4 1   
     4     2     5 1   
     5     5     6 ar  
     6     5     7 ar  
     7     6    13 ar  
     8     6    21 1   
     9     7     8 1   
    10     7    11 ar  
    11     8     9 1   
    12     8    10 1   
    13    11    12 ar  
    14    11    22 1   
    15    12    13 ar  
    16    12    23 1   
    17    13    14 1   
    18    14    15 1   
    19    14    24 1   
    20    15    16 2   
    21    15    17 1   
    22    17    18 1   
    23    17    19 1   
    24    17    20 1   
    25    18    25 1   
    26    18    26 1   
    27    18    27 1   
    28    19    28 1   
    29    19    29 1   
    30    19    30 1   
    31    20    31 1   
@<TRIPOS>SUBSTRUCTURE
     1 HFT         1 TEMP              0 ****  ****    0 ROOT
