@<TRIPOS>MOLECULE
HFT
   31    31     1     0     0
SMALL
bcc


@<TRIPOS>ATOM
      1 F1           1.8890     2.6500    -0.3250 f          1 HFT      -0.222300
      2 C7           2.4850     1.4620    -0.4670 c3         1 HFT       0.731200
      3 F2           3.4850     1.4320     0.4170 f          1 HFT      -0.222300
      4 F3           3.0080     1.4460    -1.6930 f          1 HFT      -0.222300
      5 C3           1.5040     0.3350    -0.2460 ca         1 HFT      -0.104300
      6 C2           0.1580     0.6330    -0.3020 ca         1 HFT      -0.164000
      7 C4           1.8740    -0.9770     0.0690 ca         1 HFT      -0.166200
      8 N1           3.2560    -1.4200     0.1000 no         1 HFT       0.316200
      9 O2           3.5610    -2.2390     0.9340 o          1 HFT      -0.192500
     10 O1           4.0130    -0.9730    -0.7280 o          1 HFT      -0.192500
     11 C5           0.9090    -1.9330     0.3290 ca         1 HFT      -0.046000
     12 C6          -0.4370    -1.6320     0.2480 ca         1 HFT      -0.143000
     13 C1          -0.8290    -0.3350    -0.0770 ca         1 HFT       0.117600
     14 N9          -2.1410     0.0930    -0.1870 ns         1 HFT      -0.478100
     15 C10         -3.2940    -0.6190    -0.0040 c          1 HFT       0.683100
     16 O10         -3.3140    -1.7920     0.2910 o          1 HFT      -0.521100
     17 C11         -4.5720     0.2100    -0.2010 c3         1 HFT       0.085800
     18 C12         -4.6100     0.8040    -1.6130 c3         1 HFT      -0.128100
     19 C13         -4.6410     1.3120     0.8610 c3         1 HFT      -0.128100
     20 O11         -5.6190    -0.7110    -0.0290 oh         1 HFT      -0.559800
     21 H2          -0.1580     1.6430    -0.5230 ha         1 HFT       0.154000
     22 H5           1.2020    -2.9440     0.5750 ha         1 HFT       0.173000
     23 H6          -1.1570    -2.4090     0.4360 ha         1 HFT       0.185000
     24 HN9         -2.2430     1.0640    -0.4380 hn         1 HFT       0.324500
     25 H121        -3.8370     1.5540    -1.7810 hc         1 HFT       0.051367
     26 H122        -4.5030     0.0280    -2.3720 hc         1 HFT       0.051367
     27 H123        -5.5690     1.3030    -1.7680 hc         1 HFT       0.051367
     28 H131        -5.5800     1.8590     0.7600 hc         1 HFT       0.051367
     29 H132        -4.5990     0.8920     1.8660 hc         1 HFT       0.051367
     30 H133        -3.8380     2.0400     0.7630 hc         1 HFT       0.051367
     31 H11         -6.4480    -0.2300    -0.1190 ho         1 HFT       0.412000
@<TRIPOS>BOND
     1     1     2 1   
     2     2     3 1   
     3     2     4 1   
     4     2     5 1   
     5     5     6 ar  
     6     5     7 ar  
     7     6    13 ar  
     8     6    21 1   
     9     7     8 1   
    10     7    11 ar  
    11     8     9 1   
    12     8    10 1   
    13    11    12 ar  
    14    11    22 1   
    15    12    13 ar  
    16    12    23 1   
    17    13    14 1   
    18    14    15 1   
    19    14    24 1   
    20    15    16 2   
    21    15    17 1   
    22    17    18 1   
    23    17    19 1   
    24    17    20 1   
    25    18    25 1   
    26    18    26 1   
    27    18    27 1   
    28    19    28 1   
    29    19    29 1   
    30    19    30 1   
    31    20    31 1   
@<TRIPOS>SUBSTRUCTURE
     1 HFT         1 TEMP              0 ****  ****    0 ROOT
