@<TRIPOS>MOLECULE
HFU
   59    64     1     0     0
SMALL
abcg2


@<TRIPOS>ATOM
      1 C13         45.0420     4.6710     2.3340 ca         1 HFU      -0.012000
      2 C15         45.7750     4.0170     1.3370 ca         1 HFU      -0.022000
      3 C17         47.4750     3.3950     2.9220 ca         1 HFU      -0.071000
      4 C24         48.9160     5.5300     7.1430 c3         1 HFU      -0.339100
      5 C28         46.1450     0.7820    -0.4510 ca         1 HFU      -0.069000
      6 C02         42.8890     6.2760    -1.2870 cc         1 HFU      -0.051400
      7 C03         43.6840     5.8160    -0.3150 cd         1 HFU      -0.145300
      8 C05         41.8680     6.1590     1.2360 cc         1 HFU      -0.255600
      9 C06         41.0190     6.6790     0.1880 c          1 HFU       0.602600
     10 C07         43.7200     5.2700     2.1390 cc         1 HFU      -0.094000
     11 C08         42.7590     5.4220     3.1310 cd         1 HFU      -0.173000
     12 C09         41.6010     5.9760     2.5820 cd         1 HFU      -0.060300
     13 C11         40.3390     6.2770     3.3190 c3         1 HFU      -0.020800
     14 C12         45.0870     5.3850    -0.5400 c3         1 HFU       0.159200
     15 C16         46.9870     3.4060     1.6300 ca         1 HFU      -0.107000
     16 C18         46.7650     4.0370     3.9320 ca         1 HFU      -0.091300
     17 C19         45.5800     4.6860     3.6240 ca         1 HFU      -0.058000
     18 C27         45.1420     1.6280    -0.0520 ca         1 HFU      -0.130600
     19 C29         46.3340    -0.4590     0.1850 ca         1 HFU      -0.119000
     20 C30         45.5050    -0.8430     1.2020 ca         1 HFU      -0.080000
     21 C31         44.4340    -0.0150     1.6100 ca         1 HFU      -0.042000
     22 C32         44.2330     1.2350     0.9670 ca         1 HFU      -0.005000
     23 C33         43.5510    -0.4130     2.6400 ca         1 HFU      -0.100000
     24 C34         42.5040     0.3850     3.0110 ca         1 HFU      -0.106000
     25 C35         42.2850     1.6110     2.3530 ca         1 HFU      -0.097000
     26 C36         43.1260     2.0240     1.3570 ca         1 HFU      -0.097000
     27 N01         41.6050     6.6960    -1.0490 ns         1 HFU      -0.396100
     28 N04         43.1610     5.7280     0.9760 na         1 HFU       0.171100
     29 N14         45.3100     4.0540     0.0070 n          1 HFU      -0.242400
     30 O10         39.8730     7.0670     0.3670 o          1 HFU      -0.538000
     31 O22         49.6070     5.2310     4.6140 o          1 HFU      -0.511500
     32 O23         47.6600     6.7190     5.1470 o          1 HFU      -0.511500
     33 O26         44.6810     3.0350    -1.9070 o          1 HFU      -0.574100
     34 S21         48.4280     5.5090     5.4330 s6         1 HFU       1.071000
     35 H171        48.4110     2.8990     3.1420 ha         1 HFU       0.130000
     36 H201        46.5280     4.2490     6.0690 h1         1 HFU       0.099200
     37 H202        47.8860     3.2080     5.5860 h1         1 HFU       0.099200
     38 H242        49.4230     4.5980     7.3880 h1         1 HFU       0.104033
     39 H241        49.5980     6.3690     7.2750 h1         1 HFU       0.104033
     40 H243        48.0380     5.6610     7.7700 h1         1 HFU       0.104033
     41 H281        46.8260     1.0830    -1.2370 ha         1 HFU       0.121000
     42 H1          43.2370     6.3460    -2.3070 h4         1 HFU       0.218000
     43 H081        42.8740     5.1200     4.1610 ha         1 HFU       0.135000
     44 H111        39.4900     5.7290     2.9110 hc         1 HFU       0.047700
     45 H113        40.4430     6.0020     4.3670 hc         1 HFU       0.047700
     46 H112        40.0870     7.3370     3.2750 hc         1 HFU       0.047700
     47 H121        45.3130     5.4030    -1.6050 h1         1 HFU       0.079200
     48 H122        45.7910     6.0630    -0.0530 h1         1 HFU       0.079200
     49 H161        47.5530     2.9420     0.8340 ha         1 HFU       0.129000
     50 H191        45.0530     5.2050     4.4130 ha         1 HFU       0.129000
     51 H291        47.1450    -1.1000    -0.1320 ha         1 HFU       0.118000
     52 H301        45.6540    -1.7930     1.7020 ha         1 HFU       0.115000
     53 H331        43.7160    -1.3650     3.1290 ha         1 HFU       0.113000
     54 H341        41.8340     0.0720     3.8010 ha         1 HFU       0.114000
     55 H351        41.4440     2.2300     2.6370 ha         1 HFU       0.120000
     56 H361        42.9170     2.9570     0.8510 ha         1 HFU       0.124000
     57 H2          41.0560     7.0400    -1.8230 hn         1 HFU       0.336500
     58 C20         47.3080     4.0960     5.3220 c3         1 HFU      -0.228100
     59 C25         45.0160     2.9530    -0.7400 c          1 HFU       0.629700
@<TRIPOS>BOND
     1     1     2 ar  
     2     1    10 1   
     3     1    17 ar  
     4     2    15 ar  
     5     2    29 1   
     6     3    15 ar  
     7     3    16 ar  
     8     3    35 1   
     9     4    34 1   
    10     4    38 1   
    11     4    39 1   
    12     4    40 1   
    13     5    18 ar  
    14     5    19 ar  
    15     5    41 1   
    16     6     7 2   
    17     6    27 1   
    18     6    42 1   
    19     7    14 1   
    20     7    28 1   
    21     8     9 1   
    22     8    12 2   
    23     8    28 1   
    24     9    27 1   
    25     9    30 2   
    26    10    11 2   
    27    10    28 1   
    28    11    12 1   
    29    11    43 1   
    30    12    13 1   
    31    13    44 1   
    32    13    45 1   
    33    13    46 1   
    34    14    29 1   
    35    14    47 1   
    36    14    48 1   
    37    15    49 1   
    38    16    17 ar  
    39    16    58 1   
    40    17    50 1   
    41    18    22 ar  
    42    18    59 1   
    43    19    20 ar  
    44    19    51 1   
    45    20    21 ar  
    46    20    52 1   
    47    21    22 ar  
    48    21    23 ar  
    49    22    26 ar  
    50    23    24 ar  
    51    23    53 1   
    52    24    25 ar  
    53    24    54 1   
    54    25    26 ar  
    55    25    55 1   
    56    26    56 1   
    57    27    57 1   
    58    29    59 1   
    59    31    34 2   
    60    32    34 2   
    61    33    59 2   
    62    34    58 1   
    63    36    58 1   
    64    37    58 1   
@<TRIPOS>SUBSTRUCTURE
     1 HFU         1 TEMP              0 ****  ****    0 ROOT
