@<TRIPOS>MOLECULE
HFU
   59    64     1     0     0
SMALL
No Charge or Current Charge


@<TRIPOS>ATOM
      1 C13         45.0310     4.7880     2.2600 ca         1 HFU      -0.012000
      2 C15         45.7730     4.1490     1.2300 ca         1 HFU      -0.022000
      3 C17         47.4190     3.3860     2.8710 ca         1 HFU      -0.071000
      4 C24         48.8810     5.2050     7.3930 c3         1 HFU      -0.339100
      5 C28         46.1800     0.6150    -0.5510 ca         1 HFU      -0.069000
      6 C02         42.6680     6.3000    -1.4110 cc         1 HFU      -0.051400
      7 C03         43.5610     5.8270    -0.4480 cd         1 HFU      -0.145300
      8 C05         41.7640     6.2540     1.1410 cc         1 HFU      -0.255600
      9 C06         40.8130     6.7530     0.1490 c          1 HFU       0.602600
     10 C07         43.7080     5.4160     2.0270 cc         1 HFU      -0.094000
     11 C08         42.7730     5.5570     3.0260 cd         1 HFU      -0.173000
     12 C09         41.5740     6.0890     2.4940 cd         1 HFU      -0.060300
     13 C11         40.3310     6.3790     3.2950 c3         1 HFU      -0.020800
     14 C12         44.9500     5.3540    -0.7450 c3         1 HFU       0.159200
     15 C16         46.9230     3.4020     1.5620 ca         1 HFU      -0.107000
     16 C18         46.7530     4.0940     3.8790 ca         1 HFU      -0.091300
     17 C19         45.5650     4.7790     3.5710 ca         1 HFU      -0.058000
     18 C27         45.2170     1.5500    -0.1170 ca         1 HFU      -0.130600
     19 C29         46.3700    -0.5920     0.1380 ca         1 HFU      -0.119000
     20 C30         45.5910    -0.8850     1.2670 ca         1 HFU      -0.080000
     21 C31         44.5960     0.0130     1.6910 ca         1 HFU      -0.042000
     22 C32         44.3860     1.2280     0.9910 ca         1 HFU      -0.005000
     23 C33         43.8020    -0.3100     2.8080 ca         1 HFU      -0.100000
     24 C34         42.7810     0.5580     3.2260 ca         1 HFU      -0.106000
     25 C35         42.5380     1.7420     2.5160 ca         1 HFU      -0.097000
     26 C36         43.3260     2.0690     1.4000 ca         1 HFU      -0.097000
     27 N01         41.3730     6.7350    -1.1020 ns         1 HFU      -0.396100
     28 N04         43.0510     5.8270     0.8600 na         1 HFU       0.171100
     29 N14         45.2530     4.0670    -0.1040 n          1 HFU      -0.242400
     30 O10         39.6730     7.1370     0.3590 o          1 HFU      -0.538000
     31 O22         49.6240     5.3080     4.8630 o          1 HFU      -0.511500
     32 O23         47.6510     6.7150     5.6120 o          1 HFU      -0.511500
     33 O26         44.9230     2.8770    -2.0640 o          1 HFU      -0.574100
     34 S21         48.4150     5.4630     5.6810 s6         1 HFU       1.071000
     35 H171        48.3270     2.8290     3.0970 ha         1 HFU       0.130000
     36 H201        46.4750     4.1620     6.0300 h1         1 HFU       0.099200
     37 H202        47.8590     3.1750     5.5030 h1         1 HFU       0.099200
     38 H242        49.3740     4.2300     7.4620 h1         1 HFU       0.104033
     39 H241        49.5640     6.0140     7.6740 h1         1 HFU       0.104033
     40 H243        47.9670     5.2330     7.9960 h1         1 HFU       0.104033
     41 H281        46.8080     0.8420    -1.4110 ha         1 HFU       0.121000
     42 H1          42.8900     6.3710    -2.4740 h4         1 HFU       0.218000
     43 H081        42.9020     5.2840     4.0680 ha         1 HFU       0.135000
     44 H111        39.4840     5.7840     2.9350 hc         1 HFU       0.047700
     45 H113        40.4770     6.1440     4.3560 hc         1 HFU       0.047700
     46 H112        40.0560     7.4380     3.2240 hc         1 HFU       0.047700
     47 H121        45.0970     5.2900    -1.8300 h1         1 HFU       0.079200
     48 H122        45.6610     6.1050    -0.3760 h1         1 HFU       0.079200
     49 H161        47.4650     2.8600     0.7920 ha         1 HFU       0.129000
     50 H191        45.0550     5.3060     4.3720 ha         1 HFU       0.129000
     51 H291        47.1300    -1.2950    -0.1960 ha         1 HFU       0.118000
     52 H301        45.7510    -1.8190     1.8000 ha         1 HFU       0.115000
     53 H331        43.9710    -1.2380     3.3510 ha         1 HFU       0.113000
     54 H341        42.1700     0.3040     4.0890 ha         1 HFU       0.114000
     55 H351        41.7340     2.4070     2.8250 ha         1 HFU       0.120000
     56 H361        43.0880     2.9760     0.8560 ha         1 HFU       0.124000
     57 H2          40.7640     7.0700    -1.8410 hn         1 HFU       0.336500
     58 C20         47.2940     4.0920     5.3060 c3         1 HFU      -0.228100
     59 C25         45.1320     2.8660    -0.8550 c          1 HFU       0.629700
@<TRIPOS>BOND
     1     1     2 ar  
     2     1    10 1   
     3     1    17 ar  
     4     2    15 ar  
     5     2    29 1   
     6     3    15 ar  
     7     3    16 ar  
     8     3    35 1   
     9     4    34 1   
    10     4    38 1   
    11     4    39 1   
    12     4    40 1   
    13     5    18 ar  
    14     5    19 ar  
    15     5    41 1   
    16     6     7 2   
    17     6    27 1   
    18     6    42 1   
    19     7    14 1   
    20     7    28 1   
    21     8     9 1   
    22     8    12 2   
    23     8    28 1   
    24     9    27 1   
    25     9    30 2   
    26    10    11 2   
    27    10    28 1   
    28    11    12 1   
    29    11    43 1   
    30    12    13 1   
    31    13    44 1   
    32    13    45 1   
    33    13    46 1   
    34    14    29 1   
    35    14    47 1   
    36    14    48 1   
    37    15    49 1   
    38    16    17 ar  
    39    16    58 1   
    40    17    50 1   
    41    18    22 ar  
    42    18    59 1   
    43    19    20 ar  
    44    19    51 1   
    45    20    21 ar  
    46    20    52 1   
    47    21    22 ar  
    48    21    23 ar  
    49    22    26 ar  
    50    23    24 ar  
    51    23    53 1   
    52    24    25 ar  
    53    24    54 1   
    54    25    26 ar  
    55    25    55 1   
    56    26    56 1   
    57    27    57 1   
    58    29    59 1   
    59    31    34 2   
    60    32    34 2   
    61    33    59 2   
    62    34    58 1   
    63    36    58 1   
    64    37    58 1   
@<TRIPOS>SUBSTRUCTURE
     1 HFU         1 TEMP              0 ****  ****    0 ROOT
