@<TRIPOS>MOLECULE
HFV
   47    46     1     0     0
SMALL
No Charge or Current Charge


@<TRIPOS>ATOM
      1 O20          8.9430     0.8010     1.4070 o          1 HFV      -0.741000
      2 C1           8.6030     0.7950     0.2300 c          1 HFV       0.691000
      3 O19          9.2690     1.3090    -0.6580 o          1 HFV      -0.741000
      4 C2           7.3220    -0.0430    -0.1810 c3         1 HFV       0.014500
      5 N14          7.2780    -1.4690     0.3120 n8         1 HFV      -0.995200
      6 C3           6.0290     0.7220     0.2150 c3         1 HFV      -0.051400
      7 C4           4.7330     0.1730    -0.4310 c3         1 HFV      -0.068400
      8 C7           3.4770     0.9980    -0.0620 c3         1 HFV      -0.152400
      9 C10          2.2160     0.4310    -0.7240 c          1 HFV       0.604100
     10 O15          1.9730     0.5870    -1.9130 o          1 HFV      -0.603100
     11 N11          1.3540    -0.2180     0.1300 ns         1 HFV      -0.489900
     12 C12          0.0830    -0.8730    -0.2710 c3         1 HFV       0.039700
     13 C16          0.2500    -2.4100    -0.3860 c3         1 HFV       0.068600
     14 S17          1.6140    -2.9700    -1.5180 sh         1 HFV      -0.446800
     15 C13         -1.0510    -0.5250     0.7310 c          1 HFV       0.586100
     16 O18         -0.8380    -0.0590     1.8450 o          1 HFV      -0.616100
     17 N29         -2.3290    -0.7860     0.2750 ns         1 HFV      -0.458900
     18 C30         -3.5870    -0.5410     1.0280 c3         1 HFV      -0.055300
     19 C31         -4.5170    -1.8040     1.0020 c          1 HFV       0.725000
     20 O42         -4.2620    -2.7130     0.2220 o          1 HFV      -0.709000
     21 O43         -5.4290    -1.8550     1.8140 o          1 HFV      -0.709000
     22 C32         -4.3170     0.7850     0.5810 c3         1 HFV      -0.199700
     23 C37         -3.5970     2.0780     1.0820 c3         1 HFV       0.306500
     24 F24         -2.4350     2.3010     0.4260 f          1 HFV      -0.113500
     25 F25         -4.3740     3.1730     0.9180 f          1 HFV      -0.113500
     26 F26         -3.3140     1.9960     2.4030 f          1 HFV      -0.113500
     27 C33         -4.6980     0.8330    -0.9370 c3         1 HFV       0.306500
     28 F21         -5.3970    -0.2640    -1.3040 f          1 HFV      -0.113500
     29 F23         -5.4790     1.9010    -1.2180 f          1 HFV      -0.113500
     30 F22         -3.6080     0.9050    -1.7340 f          1 HFV      -0.113500
     31 H2           7.3380    -0.0950    -1.2790 h1         1 HFV       0.040700
     32 H141         8.1200    -1.9600    -0.0120 hn         1 HFV       0.377000
     33 H142         7.3950    -1.4580     1.3330 hn         1 HFV       0.377000
     34 H3C1         5.9240     0.7210     1.3070 hc         1 HFV       0.035200
     35 H3C2         6.1440     1.7710    -0.0850 hc         1 HFV       0.035200
     36 H4C1         4.8510     0.1650    -1.5220 hc         1 HFV       0.051200
     37 H4C2         4.5780    -0.8680    -0.1210 hc         1 HFV       0.051200
     38 H7C1         3.3660     0.9860     1.0290 hc         1 HFV       0.051200
     39 H7C2         3.6230     2.0280    -0.4080 hc         1 HFV       0.051200
     40 H11          1.6190    -0.2470     1.1080 hn         1 HFV       0.316500
     41 H12         -0.2280    -0.4820    -1.2480 h1         1 HFV       0.098700
     42 H161         0.4520    -2.8200     0.6130 h1         1 HFV       0.079700
     43 H162        -0.6900    -2.8540    -0.7400 h1         1 HFV       0.079700
     44 H17          1.4330    -4.3000    -1.3260 hs         1 HFV       0.190800
     45 H29         -2.4100    -1.2170    -0.6400 hn         1 HFV       0.327500
     46 H30         -3.3250    -0.4420     2.0880 h1         1 HFV       0.082700
     47 H32         -5.2750     0.7830     1.1160 hc         1 HFV       0.133700
@<TRIPOS>BOND
     1     1     2 1   
     2     2     3 1   
     3     2     4 1   
     4     4     5 1   
     5     4     6 1   
     6     4    31 1   
     7     5    32 1   
     8     5    33 1   
     9     6     7 1   
    10     6    34 1   
    11     6    35 1   
    12     7     8 1   
    13     7    36 1   
    14     7    37 1   
    15     8     9 1   
    16     8    38 1   
    17     8    39 1   
    18     9    10 2   
    19     9    11 1   
    20    11    12 1   
    21    11    40 1   
    22    12    13 1   
    23    12    15 1   
    24    12    41 1   
    25    13    14 1   
    26    13    42 1   
    27    13    43 1   
    28    14    44 1   
    29    15    16 2   
    30    15    17 1   
    31    17    18 1   
    32    17    45 1   
    33    18    19 1   
    34    18    22 1   
    35    18    46 1   
    36    19    20 1   
    37    19    21 1   
    38    22    23 1   
    39    22    27 1   
    40    22    47 1   
    41    23    24 1   
    42    23    25 1   
    43    23    26 1   
    44    27    28 1   
    45    27    29 1   
    46    27    30 1   
@<TRIPOS>SUBSTRUCTURE
     1 HFV         1 TEMP              0 ****  ****    0 ROOT
