@<TRIPOS>MOLECULE
HFV
   47    46     1     0     0
SMALL
abcg2


@<TRIPOS>ATOM
      1 O20          9.1410     0.7680     0.1350 o          1 HFV      -0.741000
      2 C1           8.1480     1.4550    -0.1770 c          1 HFV       0.691000
      3 O19          8.0270     2.6910    -0.0370 o          1 HFV      -0.741000
      4 C2           6.9230     0.7180    -0.7760 c3         1 HFV       0.014500
      5 N14          7.1710    -0.6470    -1.2150 n8         1 HFV      -0.995200
      6 C3           5.7760     0.7390     0.2390 c3         1 HFV      -0.051400
      7 C4           4.4570     0.2320    -0.3240 c3         1 HFV      -0.068400
      8 C7           3.3500     0.2190     0.7300 c3         1 HFV      -0.152400
      9 C10          2.0170    -0.1750     0.1400 c          1 HFV       0.604100
     10 O15          1.5230     0.4130    -0.8100 o          1 HFV      -0.603100
     11 N11          1.4110    -1.2370     0.7130 ns         1 HFV      -0.489900
     12 C12          0.0960    -1.6490     0.3150 c3         1 HFV       0.039700
     13 C16         -0.1890    -3.0700     0.7900 c3         1 HFV       0.068600
     14 S17          1.0650    -4.1940     0.0920 sh         1 HFV      -0.446800
     15 C13         -0.9830    -0.7250     0.8920 c          1 HFV       0.586100
     16 O18         -0.8140    -0.1140     1.9310 o          1 HFV      -0.616100
     17 N29         -2.1200    -0.7160     0.1760 ns         1 HFV      -0.458900
     18 C30         -3.3740    -0.2250     0.6740 c3         1 HFV      -0.055300
     19 C31         -4.5030    -1.2970     0.5110 c          1 HFV       0.725000
     20 O42         -4.1490    -2.4180     0.1160 o          1 HFV      -0.709000
     21 O43         -5.6390    -0.9170     0.8390 o          1 HFV      -0.709000
     22 C32         -3.8090     1.1320     0.0810 c3         1 HFV      -0.199700
     23 C37         -3.0330     2.3080     0.6570 c3         1 HFV       0.306500
     24 F24         -1.7300     2.2820     0.3770 f          1 HFV      -0.113500
     25 F25         -3.4980     3.4860     0.2130 f          1 HFV      -0.113500
     26 F26         -3.1510     2.3340     1.9910 f          1 HFV      -0.113500
     27 C33         -3.8100     1.1370    -1.4430 c3         1 HFV       0.306500
     28 F21         -4.3840     0.0260    -1.9210 f          1 HFV      -0.113500
     29 F23         -4.4990     2.1690    -1.9450 f          1 HFV      -0.113500
     30 F22         -2.5860     1.1970    -1.9770 f          1 HFV      -0.113500
     31 H2           6.5940     1.2900    -1.6520 h1         1 HFV       0.040700
     32 H141         7.8500    -0.6290    -1.9670 hn         1 HFV       0.377000
     33 H142         7.6460    -1.1340    -0.4620 hn         1 HFV       0.377000
     34 H3C1         6.0620     0.1390     1.1120 hc         1 HFV       0.035200
     35 H3C2         5.6460     1.7620     0.5990 hc         1 HFV       0.035200
     36 H4C1         4.1540     0.8670    -1.1610 hc         1 HFV       0.051200
     37 H4C2         4.5910    -0.7740    -0.7260 hc         1 HFV       0.051200
     38 H7C1         3.6290    -0.4420     1.5540 hc         1 HFV       0.051200
     39 H7C2         3.2360     1.2200     1.1570 hc         1 HFV       0.051200
     40 H11          1.7880    -1.6040     1.5720 hn         1 HFV       0.316500
     41 H12          0.0380    -1.6280    -0.7770 h1         1 HFV       0.098700
     42 H161        -0.1720    -3.1230     1.8800 h1         1 HFV       0.079700
     43 H162        -1.1790    -3.3740     0.4510 h1         1 HFV       0.079700
     44 H17          0.4220    -5.3350     0.3630 hs         1 HFV       0.190800
     45 H29         -2.1920    -1.3770    -0.5840 hn         1 HFV       0.327500
     46 H30         -3.2760    -0.0810     1.7530 h1         1 HFV       0.082700
     47 H32         -4.8480     1.2720     0.3950 hc         1 HFV       0.133700
@<TRIPOS>BOND
     1     1     2 1   
     2     2     3 1   
     3     2     4 1   
     4     4     5 1   
     5     4     6 1   
     6     4    31 1   
     7     5    32 1   
     8     5    33 1   
     9     6     7 1   
    10     6    34 1   
    11     6    35 1   
    12     7     8 1   
    13     7    36 1   
    14     7    37 1   
    15     8     9 1   
    16     8    38 1   
    17     8    39 1   
    18     9    10 2   
    19     9    11 1   
    20    11    12 1   
    21    11    40 1   
    22    12    13 1   
    23    12    15 1   
    24    12    41 1   
    25    13    14 1   
    26    13    42 1   
    27    13    43 1   
    28    14    44 1   
    29    15    16 2   
    30    15    17 1   
    31    17    18 1   
    32    17    45 1   
    33    18    19 1   
    34    18    22 1   
    35    18    46 1   
    36    19    20 1   
    37    19    21 1   
    38    22    23 1   
    39    22    27 1   
    40    22    47 1   
    41    23    24 1   
    42    23    25 1   
    43    23    26 1   
    44    27    28 1   
    45    27    29 1   
    46    27    30 1   
@<TRIPOS>SUBSTRUCTURE
     1 HFV         1 TEMP              0 ****  ****    0 ROOT
