@<TRIPOS>MOLECULE
HFX
   23    24     1     0     0
SMALL
No Charge or Current Charge


@<TRIPOS>ATOM
      1 C4           9.6250   -42.8270   -49.2290 cc         1 HFX      -0.043000
      2 C5          10.8400   -45.0110   -49.7850 c6         1 HFX      -0.017100
      3 C6          12.2500   -45.5720   -49.4750 c6         1 HFX      -0.067400
      4 C7          13.3560   -44.7300   -50.1660 c6         1 HFX      -0.174400
      5 C8          13.3170   -43.2420   -49.7800 c          1 HFX       0.601700
      6 C1          11.6650   -41.3880   -49.1920 cc         1 HFX      -0.156500
      7 C2          11.9500   -42.7060   -49.5040 cd         1 HFX      -0.134600
      8 C3          10.7760   -43.5230   -49.5080 cd         1 HFX      -0.065300
      9 C9          12.5320   -39.5800   -47.3270 c3         1 HFX      -0.108800
     10 O1          14.3500   -42.5900   -49.6870 o          1 HFX      -0.524100
     11 O2          12.1650   -38.9070   -49.9510 o          1 HFX      -0.484000
     12 S1           9.9410   -41.1190   -48.9560 ss         1 HFX       0.338000
     13 S2          12.8220   -39.9890   -49.1120 sx         1 HFX       0.346200
     14 Cl1          8.0170   -43.4860   -49.1540 cl         1 HFX      -0.136000
     15 H1          10.5870   -45.2050   -50.8360 hc         1 HFX       0.062700
     16 H2          10.0960   -45.5540   -49.1850 hc         1 HFX       0.062700
     17 H3          12.3140   -46.6190   -49.8010 hc         1 HFX       0.051700
     18 H4          12.4160   -45.5720   -48.3880 hc         1 HFX       0.051700
     19 H5          14.3650   -45.1330   -50.0110 hc         1 HFX       0.075200
     20 H6          13.1490   -44.7650   -51.2440 hc         1 HFX       0.075200
     21 H7          13.1330   -38.6990   -47.0760 h1         1 HFX       0.081700
     22 H8          11.4680   -39.3670   -47.1750 h1         1 HFX       0.081700
     23 H9          12.8440   -40.4390   -46.7210 h1         1 HFX       0.081700
@<TRIPOS>BOND
     1     1     8 2   
     2     1    12 1   
     3     1    14 1   
     4     2     3 1   
     5     2     8 1   
     6     2    15 1   
     7     2    16 1   
     8     3     4 1   
     9     3    17 1   
    10     3    18 1   
    11     4     5 1   
    12     4    19 1   
    13     4    20 1   
    14     5     7 1   
    15     5    10 2   
    16     6     7 2   
    17     6    12 1   
    18     6    13 1   
    19     7     8 1   
    20     9    13 1   
    21     9    21 1   
    22     9    22 1   
    23     9    23 1   
    24    11    13 2   
@<TRIPOS>SUBSTRUCTURE
     1 HFX         1 TEMP              0 ****  ****    0 ROOT
