@<TRIPOS>MOLECULE
HFX
   23    24     1     0     0
SMALL
abcg2


@<TRIPOS>ATOM
      1 C4           9.7680   -42.9630   -48.8010 cc         1 HFX      -0.043000
      2 C5          10.8380   -45.0310   -49.8580 c6         1 HFX      -0.017100
      3 C6          12.2430   -45.6170   -49.7590 c6         1 HFX      -0.067400
      4 C7          13.2720   -44.6990   -50.4100 c6         1 HFX      -0.174400
      5 C8          13.2930   -43.3170   -49.8120 c          1 HFX       0.601700
      6 C1          11.8040   -41.5940   -48.7160 cc         1 HFX      -0.156500
      7 C2          12.0040   -42.8310   -49.2810 cd         1 HFX      -0.134600
      8 C3          10.8280   -43.6360   -49.3240 cd         1 HFX      -0.065300
      9 C9          12.1640   -39.1950   -47.4780 c3         1 HFX      -0.108800
     10 O1          14.2840   -42.6170   -49.7860 o          1 HFX      -0.524100
     11 O2          13.3060   -39.6570   -49.8050 o          1 HFX      -0.484000
     12 S1          10.1710   -41.3860   -48.2550 ss         1 HFX       0.338000
     13 S2          13.0910   -40.3630   -48.4980 sx         1 HFX       0.346200
     14 CL1          8.1750   -43.5450   -48.6380 cl         1 HFX      -0.136000
     15 H1          10.5120   -45.0240   -50.9030 hc         1 HFX       0.062700
     16 H2          10.1240   -45.6500   -49.3130 hc         1 HFX       0.062700
     17 H3          12.2700   -46.5930   -50.2420 hc         1 HFX       0.051700
     18 H4          12.5020   -45.7760   -48.7090 hc         1 HFX       0.051700
     19 H5          14.2770   -45.1200   -50.3670 hc         1 HFX       0.075200
     20 H6          13.0280   -44.5760   -51.4730 hc         1 HFX       0.075200
     21 H7          12.8450   -38.3650   -47.2980 h1         1 HFX       0.081700
     22 H8          11.2890   -38.8250   -48.0120 h1         1 HFX       0.081700
     23 H9          11.8920   -39.6430   -46.5250 h1         1 HFX       0.081700
@<TRIPOS>BOND
     1     1     8 2   
     2     1    12 1   
     3     1    14 1   
     4     2     3 1   
     5     2     8 1   
     6     2    15 1   
     7     2    16 1   
     8     3     4 1   
     9     3    17 1   
    10     3    18 1   
    11     4     5 1   
    12     4    19 1   
    13     4    20 1   
    14     5     7 1   
    15     5    10 2   
    16     6     7 2   
    17     6    12 1   
    18     6    13 1   
    19     7     8 1   
    20     9    13 1   
    21     9    21 1   
    22     9    22 1   
    23     9    23 1   
    24    11    13 2   
@<TRIPOS>SUBSTRUCTURE
     1 HFX         1 TEMP              0 ****  ****    0 ROOT
