@<TRIPOS>MOLECULE
HFY
   47    50     1     0     0
SMALL
No Charge or Current Charge


@<TRIPOS>ATOM
      1 O3          -0.2800    -3.0020     1.0700 oh         1 HFY      -0.718000
      2 C4          -4.2790    -2.7310    -0.9360 c3         1 HFY       0.163600
      3 C5           0.2150     1.1610    -0.4570 cc         1 HFY       0.680700
      4 C6          -1.3660     2.5230    -0.0220 ca         1 HFY      -0.053600
      5 N1          -0.0030     2.4710    -0.3340 nd         1 HFY      -0.635100
      6 C7          -2.1850     3.6450     0.2350 ca         1 HFY       0.422900
      7 C8          -3.9540     2.2280     0.5560 ca         1 HFY       0.162900
      8 N2          -3.4890     3.5000     0.5230 nb         1 HFY      -0.285000
      9 C9          -1.9390     1.2740     0.0320 ca         1 HFY       0.129500
     10 C10          2.6920     1.4220    -0.7700 c3         1 HFY       0.283100
     11 C11          3.8880     0.4790    -0.7410 ca         1 HFY      -0.105300
     12 C12          4.4810     0.0760    -1.9560 ca         1 HFY      -0.094000
     13 N3          -3.2430     1.0980     0.3270 nb         1 HFY      -0.235000
     14 C13          5.5860    -0.7930    -1.9570 ca         1 HFY      -0.112000
     15 C14          6.1080    -1.2680    -0.7430 ca         1 HFY      -0.094000
     16 C15          5.5220    -0.8740     0.4720 ca         1 HFY      -0.108000
     17 N4          -1.7150     4.9240     0.2030 nv         1 HFY      -1.054900
     18 C16          4.4170    -0.0050     0.4770 ca         1 HFY       0.142000
     19 N5           1.4470     0.6500    -0.7170 nu         1 HFY      -0.898400
     20 N           -0.9280     0.3940    -0.2570 na         1 HFY      -0.322300
     21 C           -1.0150    -1.0630    -0.3570 c5         1 HFY       0.314300
     22 C1          -1.1060    -1.8300     1.0150 c5         1 HFY       0.111300
     23 C2          -2.5950    -2.2810     1.0290 c5         1 HFY       0.089300
     24 O2          -2.7670    -3.4330     1.8830 oh         1 HFY      -0.715000
     25 C3          -2.7970    -2.5770    -0.4890 c5         1 HFY       0.173300
     26 O           -2.1930    -1.4250    -1.1170 os         1 HFY      -0.439000
     27 H8          -0.8830    -3.6600     1.5070 ho         1 HFY       0.527000
     28 H4          -4.7670    -3.4620    -0.2770 h1         1 HFY       0.032700
     29 H5          -4.7920    -1.7690    -0.7990 h1         1 HFY       0.032700
     30 H9          -5.0100     2.1000     0.7920 h5         1 HFY       0.041100
     31 H14          2.7490     2.1260     0.0720 h1         1 HFY       0.067700
     32 H13          2.7210     2.0220    -1.6900 h1         1 HFY       0.067700
     33 H15          4.0830     0.4360    -2.9030 ha         1 HFY       0.115000
     34 H16          6.0370    -1.0980    -2.8990 ha         1 HFY       0.119000
     35 H17          6.9640    -1.9410    -0.7430 ha         1 HFY       0.119000
     36 H18          5.9230    -1.2440     1.4120 ha         1 HFY       0.131000
     37 H11         -0.7960     5.0630    -0.2100 hn         1 HFY       0.495500
     38 H10         -2.3820     5.6840     0.1070 hn         1 HFY       0.495500
     39 H12          1.5300    -0.3520    -0.5830 hn         1 HFY       0.497000
     40 H           -0.1250    -1.3980    -0.9040 h2         1 HFY       0.087700
     41 H1          -0.8870    -1.1630     1.8610 h1         1 HFY       0.079700
     42 H2          -3.2420    -1.4510     1.3490 h1         1 HFY       0.087700
     43 H7          -3.7130    -3.4600     2.1700 ho         1 HFY       0.516000
     44 H3          -2.2430    -3.4780    -0.7870 h1         1 HFY       0.077700
     45 O1          -4.3770    -3.1680    -2.3060 oh         1 HFY      -0.708000
     46 Cl           3.7110     0.4480     2.0300 cl         1 HFY      -0.188000
     47 H6          -5.3360    -3.1780    -2.5380 ho         1 HFY       0.504000
@<TRIPOS>BOND
     1     1    22 1   
     2     1    27 1   
     3     2    25 1   
     4     2    28 1   
     5     2    29 1   
     6     2    45 1   
     7     3     5 2   
     8     3    19 1   
     9     3    20 1   
    10     4     5 1   
    11     4     6 ar  
    12     4     9 ar  
    13     6     8 ar  
    14     6    17 1   
    15     7     8 ar  
    16     7    13 ar  
    17     7    30 1   
    18     9    13 ar  
    19     9    20 1   
    20    10    11 1   
    21    10    19 1   
    22    10    31 1   
    23    10    32 1   
    24    11    12 ar  
    25    11    18 ar  
    26    12    14 ar  
    27    12    33 1   
    28    14    15 ar  
    29    14    34 1   
    30    15    16 ar  
    31    15    35 1   
    32    16    18 ar  
    33    16    36 1   
    34    17    37 1   
    35    17    38 1   
    36    18    46 1   
    37    19    39 1   
    38    20    21 1   
    39    21    22 1   
    40    21    26 1   
    41    21    40 1   
    42    22    23 1   
    43    22    41 1   
    44    23    24 1   
    45    23    25 1   
    46    23    42 1   
    47    24    43 1   
    48    25    26 1   
    49    25    44 1   
    50    45    47 1   
@<TRIPOS>SUBSTRUCTURE
     1 HFY         1 TEMP              0 ****  ****    0 ROOT
