@<TRIPOS>MOLECULE
HFY
   47    50     1     0     0
SMALL
abcg2


@<TRIPOS>ATOM
      1 O3          -0.5980    -2.9960     1.4400 oh         1 HFY      -0.718000
      2 C4          -4.1870    -2.3810    -1.2430 c3         1 HFY       0.163600
      3 C5           0.2340     0.9190    -0.5830 cc         1 HFY       0.680700
      4 C6          -1.1820     2.3290     0.1200 ca         1 HFY      -0.053600
      5 N1           0.0590     2.2070    -0.4530 nd         1 HFY      -0.635100
      6 C7          -1.9380     3.4420     0.5060 ca         1 HFY       0.422900
      7 C8          -3.5900     1.9880     1.1660 ca         1 HFY       0.162900
      8 N2          -3.1540     3.2330     1.0290 nb         1 HFY      -0.285000
      9 C9          -1.7640     1.0920     0.3240 ca         1 HFY       0.129500
     10 C10          2.4740     1.1130    -1.5310 c3         1 HFY       0.283100
     11 C11          3.7630     0.4670    -1.1030 ca         1 HFY      -0.105300
     12 C12          4.6080    -0.1070    -2.0470 ca         1 HFY      -0.094000
     13 N3          -2.9650     0.8660     0.8400 nb         1 HFY      -0.235000
     14 C13          5.7940    -0.7270    -1.6770 ca         1 HFY      -0.112000
     15 C14          6.1500    -0.7830    -0.3390 ca         1 HFY      -0.094000
     16 C15          5.3260    -0.2160     0.6240 ca         1 HFY      -0.108000
     17 N4          -1.4800     4.7010     0.3980 nv         1 HFY      -1.054900
     18 C16          4.1480     0.3990     0.2340 ca         1 HFY       0.142000
     19 N5           1.3420     0.3360    -1.0800 nu         1 HFY      -0.898400
     20 N           -0.8350     0.1750    -0.1130 na         1 HFY      -0.322300
     21 C           -0.9770    -1.2570    -0.1300 c5         1 HFY       0.314300
     22 C1          -1.4250    -1.8870     1.2020 c5         1 HFY       0.111300
     23 C2          -2.8640    -2.3380     0.9080 c5         1 HFY       0.089300
     24 O2          -3.2140    -3.5210     1.5790 oh         1 HFY      -0.715000
     25 C3          -2.8370    -2.5740    -0.6000 c5         1 HFY       0.173300
     26 O           -1.9200    -1.6170    -1.1070 os         1 HFY      -0.439000
     27 H8          -1.1380    -3.6610     1.8870 ho         1 HFY       0.527000
     28 H4          -4.9000    -3.0300    -0.7170 h1         1 HFY       0.032700
     29 H5          -4.5120    -1.3450    -1.0780 h1         1 HFY       0.032700
     30 H9          -4.5800     1.8770     1.5960 h5         1 HFY       0.041100
     31 H14          2.3840     2.1140    -1.1110 h1         1 HFY       0.067700
     32 H13          2.4670     1.2220    -2.6190 h1         1 HFY       0.067700
     33 H15          4.3250    -0.0650    -3.0920 ha         1 HFY       0.115000
     34 H16          6.4330    -1.1650    -2.4320 ha         1 HFY       0.119000
     35 H17          7.0710    -1.2640    -0.0350 ha         1 HFY       0.119000
     36 H18          5.6010    -0.2530     1.6700 ha         1 HFY       0.131000
     37 H11         -0.6640     4.8840    -0.1590 hn         1 HFY       0.495500
     38 H10         -2.1230     5.4640     0.5240 hn         1 HFY       0.495500
     39 H12          1.2840    -0.6060    -1.4330 hn         1 HFY       0.497000
     40 H            0.0060    -1.6700    -0.3710 h2         1 HFY       0.087700
     41 H1          -1.3740    -1.1700     2.0290 h1         1 HFY       0.079700
     42 H2          -3.5500    -1.5200     1.1420 h1         1 HFY       0.087700
     43 H7          -3.6230    -3.2910     2.4190 ho         1 HFY       0.516000
     44 H3          -2.4740    -3.5920    -0.8020 h1         1 HFY       0.077700
     45 O1          -4.1030    -2.6970    -2.6110 oh         1 HFY      -0.708000
     46 CL           3.1440     1.1120     1.4550 cl         1 HFY      -0.188000
     47 H6          -4.9760    -2.5830    -2.9970 ho         1 HFY       0.504000
@<TRIPOS>BOND
     1     1    22 1   
     2     1    27 1   
     3     2    25 1   
     4     2    28 1   
     5     2    29 1   
     6     2    45 1   
     7     3     5 2   
     8     3    19 1   
     9     3    20 1   
    10     4     5 1   
    11     4     6 ar  
    12     4     9 ar  
    13     6     8 ar  
    14     6    17 1   
    15     7     8 ar  
    16     7    13 ar  
    17     7    30 1   
    18     9    13 ar  
    19     9    20 1   
    20    10    11 1   
    21    10    19 1   
    22    10    31 1   
    23    10    32 1   
    24    11    12 ar  
    25    11    18 ar  
    26    12    14 ar  
    27    12    33 1   
    28    14    15 ar  
    29    14    34 1   
    30    15    16 ar  
    31    15    35 1   
    32    16    18 ar  
    33    16    36 1   
    34    17    37 1   
    35    17    38 1   
    36    18    46 1   
    37    19    39 1   
    38    20    21 1   
    39    21    22 1   
    40    21    26 1   
    41    21    40 1   
    42    22    23 1   
    43    22    41 1   
    44    23    24 1   
    45    23    25 1   
    46    23    42 1   
    47    24    43 1   
    48    25    26 1   
    49    25    44 1   
    50    45    47 1   
@<TRIPOS>SUBSTRUCTURE
     1 HFY         1 TEMP              0 ****  ****    0 ROOT
