@<TRIPOS>MOLECULE
HFZ
   28    29     1     0     0
SMALL
No Charge or Current Charge


@<TRIPOS>ATOM
      1 N01          2.6030     1.8960    -1.3320 n8         1 HFZ      -0.998100
      2 S02          2.1600     1.6730     0.2250 sy         1 HFZ       1.145600
      3 O03          3.3400     1.0810     0.8440 o          1 HFZ      -0.520000
      4 O04          1.6180     2.9630     0.6520 o          1 HFZ      -0.520000
      5 C05          0.8310     0.4570     0.0460 ca         1 HFZ      -0.345500
      6 C06         -0.4770     0.9940     0.0290 ca         1 HFZ       0.125000
      7 C07         -1.5840     0.1470    -0.0840 ca         1 HFZ      -0.399500
      8 C08         -1.4220    -1.2130    -0.1750 ca         1 HFZ       0.454000
      9 C09         -0.1450    -1.7710    -0.1740 ca         1 HFZ      -0.187000
     10 C10          1.0180    -0.9640    -0.0730 ca         1 HFZ      -0.006300
     11 C11          2.3970    -1.6780    -0.0900 c3         1 HFZ       0.352300
     12 F12          2.3130    -2.9760    -0.4630 f          1 HFZ      -0.101667
     13 F13          3.2660    -1.1130    -0.9580 f          1 HFZ      -0.101667
     14 F14          2.9790    -1.6820     1.1310 f          1 HFZ      -0.101667
     15 N15         -2.5480    -2.0050    -0.2860 nu         1 HFZ      -0.999200
     16 C16         -3.7720    -1.6500     0.3780 c6         1 HFZ       0.471000
     17 N17         -4.1240    -0.5570    -0.4530 n7         1 HFZ      -0.849300
     18 S18         -3.2210     0.7940    -0.1090 sy         1 HFZ       1.162600
     19 O19         -3.5970     1.2270     1.2390 o          1 HFZ      -0.514000
     20 O20         -3.3620     1.6870    -1.2600 o          1 HFZ      -0.514000
     21 HN01         3.6060     1.7390    -1.2690 hn         1 HFZ       0.482500
     22 HN0A         2.2510     1.0550    -1.7800 hn         1 HFZ       0.482500
     23 H06         -0.6420     2.0700     0.1020 ha         1 HFZ       0.162000
     24 H09         -0.0660    -2.8500    -0.2520 ha         1 HFZ       0.134000
     25 HN15        -2.3450    -3.0060    -0.3290 hn         1 HFZ       0.517000
     26 H16         -4.5330    -2.4450     0.2960 h2         1 HFZ       0.091700
     27 H16A        -3.6520    -1.3550     1.4360 h2         1 HFZ       0.091700
     28 HN17        -3.6670    -0.8400    -1.3120 hn         1 HFZ       0.488000
@<TRIPOS>BOND
     1     1     2 1   
     2     1    21 1   
     3     1    22 1   
     4     2     3 2   
     5     2     4 2   
     6     2     5 1   
     7     5     6 ar  
     8     5    10 ar  
     9     6     7 ar  
    10     6    23 1   
    11     7     8 ar  
    12     7    18 1   
    13     8     9 ar  
    14     8    15 1   
    15     9    10 ar  
    16     9    24 1   
    17    10    11 1   
    18    11    12 1   
    19    11    13 1   
    20    11    14 1   
    21    15    16 1   
    22    15    25 1   
    23    16    17 1   
    24    16    26 1   
    25    16    27 1   
    26    17    18 1   
    27    17    28 1   
    28    18    19 2   
    29    18    20 2   
@<TRIPOS>SUBSTRUCTURE
     1 HFZ         1 TEMP              0 ****  ****    0 ROOT
