@<TRIPOS>MOLECULE
HFZ
   28    29     1     0     0
SMALL
abcg2


@<TRIPOS>ATOM
      1 N01          2.7500     1.8360    -1.4540 n8         1 HFZ      -0.998100
      2 S02          2.1810     1.6460     0.0720 sy         1 HFZ       1.145600
      3 O03          3.2740     1.1500     0.8840 o          1 HFZ      -0.520000
      4 O04          1.5500     2.9090     0.4140 o          1 HFZ      -0.520000
      5 C05          0.8760     0.4280     0.0520 ca         1 HFZ      -0.345500
      6 C06         -0.4110     0.9360     0.0510 ca         1 HFZ       0.125000
      7 C07         -1.5130     0.1020     0.0570 ca         1 HFZ      -0.399500
      8 C08         -1.3710    -1.2960     0.0480 ca         1 HFZ       0.454000
      9 C09         -0.0530    -1.7980     0.0280 ca         1 HFZ      -0.187000
     10 C10          1.0450    -0.9740     0.0350 ca         1 HFZ      -0.006300
     11 C11          2.3940    -1.6540     0.0580 c3         1 HFZ       0.352300
     12 F12          2.3060    -2.9380    -0.2940 f          1 HFZ      -0.101667
     13 F13          3.2570    -1.0940    -0.7970 f          1 HFZ      -0.101667
     14 F14          2.9370    -1.6250     1.2740 f          1 HFZ      -0.101667
     15 N15         -2.4160    -2.1380     0.0290 nu         1 HFZ      -0.999200
     16 C16         -3.7940    -1.7060     0.1260 c6         1 HFZ       0.471000
     17 N17         -4.0180    -0.4570    -0.5680 n7         1 HFZ      -0.849300
     18 S18         -3.1310     0.7970     0.0480 sy         1 HFZ       1.162600
     19 O19         -3.5610     0.9980     1.4180 o          1 HFZ      -0.514000
     20 O20         -3.1860     1.9000    -0.8900 o          1 HFZ      -0.514000
     21 HN01         3.2420     1.0380    -1.8340 hn         1 HFZ       0.482500
     22 HN0A         2.0590     2.1910    -2.1050 hn         1 HFZ       0.482500
     23 H06         -0.5640     2.0070     0.0470 ha         1 HFZ       0.162000
     24 H09          0.0660    -2.8730     0.0130 ha         1 HFZ       0.134000
     25 HN15        -2.2360    -3.1290    -0.0000 hn         1 HFZ       0.517000
     26 H16         -4.4260    -2.4670    -0.3240 h2         1 HFZ       0.091700
     27 H16A        -4.1000    -1.5890     1.1670 h2         1 HFZ       0.091700
     28 HN17        -3.9330    -0.5230    -1.5780 hn         1 HFZ       0.488000
@<TRIPOS>BOND
     1     1     2 1   
     2     1    21 1   
     3     1    22 1   
     4     2     3 2   
     5     2     4 2   
     6     2     5 1   
     7     5     6 ar  
     8     5    10 ar  
     9     6     7 ar  
    10     6    23 1   
    11     7     8 ar  
    12     7    18 1   
    13     8     9 ar  
    14     8    15 1   
    15     9    10 ar  
    16     9    24 1   
    17    10    11 1   
    18    11    12 1   
    19    11    13 1   
    20    11    14 1   
    21    15    16 1   
    22    15    25 1   
    23    16    17 1   
    24    16    26 1   
    25    16    27 1   
    26    17    18 1   
    27    17    28 1   
    28    18    19 2   
    29    18    20 2   
@<TRIPOS>SUBSTRUCTURE
     1 HFZ         1 TEMP              0 ****  ****    0 ROOT
