@<TRIPOS>MOLECULE
HG1
   61    61     1     0     0
SMALL
abcg2


@<TRIPOS>ATOM
      1 CAO         -5.8910    -1.8630    -0.0210 c6         1 HG1      -0.071400
      2 CAJ         -7.1340    -2.5120     0.5780 c6         1 HG1      -0.072900
      3 CAI         -8.4140    -1.9040     0.0160 c6         1 HG1      -0.074400
      4 CAK         -8.4270    -0.3910     0.2070 c6         1 HG1      -0.072900
      5 CAP         -7.1820     0.2520    -0.3930 c6         1 HG1      -0.071400
      6 CAU         -5.8890    -0.3440     0.1670 c6         1 HG1      -0.058700
      7 CAQ         -4.6720     0.3310    -0.4630 c3         1 HG1      -0.074400
      8 CAL         -3.3350    -0.0850     0.1420 c3         1 HG1      -0.065400
      9 CAN         -2.1890     0.7170    -0.4570 c3         1 HG1      -0.149400
     10 CAT         -0.8390     0.3790     0.1350 c          1 HG1       0.606100
     11 OAA         -0.7030    -0.5960     0.8780 o          1 HG1      -0.626100
     12 NAZ          0.2100     1.1660    -0.1730 n          1 HG1      -0.402800
     13 CAR          0.1450     2.2390    -1.1550 c3         1 HG1       0.102000
     14 CAH         -0.1960     3.6020    -0.5840 c3         1 HG1       0.142600
     15 OAB          0.8110     4.0070     0.3120 oh         1 HG1      -0.660000
     16 CAS          1.4940     0.9400     0.4850 c3         1 HG1       0.057000
     17 CAW          2.3380    -0.1630    -0.1470 c3         1 HG1       0.128300
     18 H25          2.4620     0.0800    -1.2120 h1         1 HG1       0.053700
     19 CAY          3.7340    -0.1970     0.5130 c3         1 HG1       0.130300
     20 OAG          3.6820    -0.9460     1.7060 oh         1 HG1      -0.715000
     21 CAX          4.8080    -0.7240    -0.4440 c3         1 HG1       0.117300
     22 OAF          4.4960    -2.0030    -0.9490 oh         1 HG1      -0.707000
     23 H1          -4.9970    -2.3050     0.4260 hc         1 HG1       0.038200
     24 H2          -5.8420    -2.0870    -1.0940 hc         1 HG1       0.038200
     25 H3          -7.1150    -3.5910     0.4020 hc         1 HG1       0.038700
     26 H4          -7.1200    -2.3780     1.6660 hc         1 HG1       0.038700
     27 H5          -8.4880    -2.1340    -1.0530 hc         1 HG1       0.037700
     28 H6          -9.2890    -2.3560     0.4910 hc         1 HG1       0.037700
     29 H7          -9.3260     0.0410    -0.2420 hc         1 HG1       0.038700
     30 H8          -8.4770    -0.1630     1.2780 hc         1 HG1       0.038700
     31 H9          -7.1940     0.1140    -1.4810 hc         1 HG1       0.038200
     32 H10         -7.1940     1.3330    -0.2210 hc         1 HG1       0.038200
     33 H11         -5.8640    -0.1400     1.2470 hc         1 HG1       0.047700
     34 H12         -4.6650     0.1310    -1.5410 hc         1 HG1       0.034200
     35 H13         -4.7850     1.4160    -0.3590 hc         1 HG1       0.034200
     36 H14         -3.3670     0.0670     1.2250 hc         1 HG1       0.059200
     37 H15         -3.1640    -1.1500    -0.0180 hc         1 HG1       0.059200
     38 H16         -2.1450     0.5460    -1.5390 hc         1 HG1       0.056700
     39 H17         -2.3860     1.7860    -0.3390 hc         1 HG1       0.056700
     40 H18          1.1110     2.2830    -1.6640 h1         1 HG1       0.059200
     41 H19         -0.5830     1.9980    -1.9280 h1         1 HG1       0.059200
     42 H20         -0.2940     4.2960    -1.4280 h1         1 HG1       0.026200
     43 H21         -1.1760     3.5600    -0.0920 h1         1 HG1       0.026200
     44 H22          0.5410     4.8370     0.7160 ho         1 HG1       0.451000
     45 H23          2.0520     1.8720     0.4310 h1         1 HG1       0.077700
     46 H24          1.3310     0.7370     1.5460 h1         1 HG1       0.077700
     47 OAE          1.7420    -1.4380    -0.0200 oh         1 HG1      -0.746000
     48 H27          4.0140     0.8270     0.7760 h1         1 HG1       0.076700
     49 H28          3.0000    -1.6180     1.5680 ho         1 HG1       0.519000
     50 H29          4.8140    -0.0540    -1.3140 h1         1 HG1       0.060700
     51 C17          6.2130    -0.7080     0.1850 c3         1 HG1       0.138300
     52 H31          4.4460    -2.6190    -0.2100 ho         1 HG1       0.512000
     53 C18          7.2670    -1.1280    -0.8270 c3         1 HG1       0.128600
     54 O6           8.5170    -1.1980    -0.1800 oh         1 HG1      -0.708000
     55 H30          6.2270    -1.4180     1.0200 h1         1 HG1       0.098700
     56 O7           6.5110     0.5490     0.7520 oh         1 HG1      -0.692000
     57 H26          0.8780    -1.3320     0.4180 ho         1 HG1       0.549000
     58 H32          6.9850    -2.0910    -1.2640 h1         1 HG1       0.025700
     59 H33          7.2800    -0.3970    -1.6510 h1         1 HG1       0.025700
     60 H34          9.1710    -1.4670    -0.8310 ho         1 HG1       0.500000
     61 H35          6.5900     1.1960     0.0410 ho         1 HG1       0.490000
@<TRIPOS>BOND
     1     1     2 1   
     2     1     6 1   
     3     1    23 1   
     4     1    24 1   
     5     2     3 1   
     6     2    25 1   
     7     2    26 1   
     8     3     4 1   
     9     3    27 1   
    10     3    28 1   
    11     4     5 1   
    12     4    29 1   
    13     4    30 1   
    14     5     6 1   
    15     5    31 1   
    16     5    32 1   
    17     6     7 1   
    18     6    33 1   
    19     7     8 1   
    20     7    34 1   
    21     7    35 1   
    22     8     9 1   
    23     8    36 1   
    24     8    37 1   
    25     9    10 1   
    26     9    38 1   
    27     9    39 1   
    28    10    11 2   
    29    10    12 1   
    30    12    13 1   
    31    12    16 1   
    32    13    14 1   
    33    13    40 1   
    34    13    41 1   
    35    14    15 1   
    36    14    42 1   
    37    14    43 1   
    38    15    44 1   
    39    16    17 1   
    40    16    45 1   
    41    16    46 1   
    42    17    18 1   
    43    17    19 1   
    44    17    47 1   
    45    19    20 1   
    46    19    21 1   
    47    19    48 1   
    48    20    49 1   
    49    21    22 1   
    50    21    50 1   
    51    21    51 1   
    52    22    52 1   
    53    47    57 1   
    54    51    53 1   
    55    51    55 1   
    56    51    56 1   
    57    53    54 1   
    58    53    58 1   
    59    53    59 1   
    60    54    60 1   
    61    56    61 1   
@<TRIPOS>SUBSTRUCTURE
     1 HG1         1 TEMP              0 ****  ****    0 ROOT
