@<TRIPOS>MOLECULE
HG1
   61    61     1     0     0
SMALL
No Charge or Current Charge


@<TRIPOS>ATOM
      1 CAO         -5.9080    -1.9990    -0.1290 c6         1 HG1      -0.071400
      2 CAJ         -7.1430    -2.7420     0.4370 c6         1 HG1      -0.072900
      3 CAI         -8.4610    -2.1480    -0.1130 c6         1 HG1      -0.074400
      4 CAK         -8.5450    -0.6290     0.1720 c6         1 HG1      -0.072900
      5 CAP         -7.3130     0.1150    -0.4010 c6         1 HG1      -0.071400
      6 CAU         -5.9800    -0.4670     0.1500 c6         1 HG1      -0.058700
      7 CAQ         -4.7590     0.3110    -0.4330 c3         1 HG1      -0.074400
      8 CAL         -3.3810    -0.0690     0.1600 c3         1 HG1      -0.065400
      9 CAN         -2.2310     0.8160    -0.3810 c3         1 HG1      -0.149400
     10 CAT         -0.8300     0.5000     0.1830 c          1 HG1       0.606100
     11 OAA         -0.6190    -0.5330     0.8090 o          1 HG1      -0.626100
     12 NAZ          0.2390     1.3990    -0.0460 n          1 HG1      -0.402800
     13 CAR          0.1470     2.5230    -1.0200 c3         1 HG1       0.102000
     14 CAH         -0.2540     3.8890    -0.4020 c3         1 HG1       0.142600
     15 OAB          0.7700     4.3920     0.4690 oh         1 HG1      -0.660000
     16 CAS          1.5500     1.1910     0.6290 c3         1 HG1       0.057000
     17 CAW          2.4390     0.1260    -0.0630 c3         1 HG1       0.128300
     18 H25          2.4470     0.3530    -1.1390 h1         1 HG1       0.053700
     19 CAY          3.9180     0.1440     0.4360 c3         1 HG1       0.130300
     20 OAG          3.9440    -0.2460     1.8270 oh         1 HG1      -0.715000
     21 CAX          4.8310    -0.7990    -0.4200 c3         1 HG1       0.117300
     22 OAF          4.3120    -2.1430    -0.3480 oh         1 HG1      -0.707000
     23 H1          -5.0040    -2.4290     0.3210 hc         1 HG1       0.038200
     24 H2          -5.8340    -2.1780    -1.2110 hc         1 HG1       0.038200
     25 H3          -7.0830    -3.8100     0.1850 hc         1 HG1       0.038700
     26 H4          -7.1400    -2.6810     1.5350 hc         1 HG1       0.038700
     27 H5          -8.5250    -2.3260    -1.1950 hc         1 HG1       0.037700
     28 H6          -9.3200    -2.6610     0.3400 hc         1 HG1       0.037700
     29 H7          -9.4650    -0.2180    -0.2660 hc         1 HG1       0.038700
     30 H8          -8.6110    -0.4580     1.2550 hc         1 HG1       0.038700
     31 H9          -7.3240     0.0500    -1.4980 hc         1 HG1       0.038200
     32 H10         -7.3870     1.1830    -0.1520 hc         1 HG1       0.038200
     33 H11         -5.9590    -0.3090     1.2370 hc         1 HG1       0.047700
     34 H12         -4.7210     0.1750    -1.5210 hc         1 HG1       0.034200
     35 H13         -4.9110     1.3850    -0.2670 hc         1 HG1       0.034200
     36 H14         -3.4210     0.0210     1.2530 hc         1 HG1       0.059200
     37 H15         -3.1570    -1.1170    -0.0700 hc         1 HG1       0.059200
     38 H16         -2.1700     0.7460    -1.4730 hc         1 HG1       0.056700
     39 H17         -2.4390     1.8800    -0.2320 hc         1 HG1       0.056700
     40 H18          1.1210     2.6410    -1.5130 h1         1 HG1       0.059200
     41 H19         -0.5650     2.2720    -1.8150 h1         1 HG1       0.059200
     42 H20         -0.4300     4.6010    -1.2190 h1         1 HG1       0.026200
     43 H21         -1.1990     3.7770     0.1460 h1         1 HG1       0.026200
     44 H22          0.4480     5.2500     0.8280 ho         1 HG1       0.451000
     45 H23          2.0980     2.1420     0.6380 h1         1 HG1       0.077700
     46 H24          1.3850     0.9170     1.6800 h1         1 HG1       0.077700
     47 OAE          1.8720    -1.1860     0.1620 oh         1 HG1      -0.746000
     48 H27          4.3000     1.1690     0.3250 h1         1 HG1       0.076700
     49 H28          3.3420    -1.0240     1.8860 ho         1 HG1       0.519000
     50 H29          4.7710    -0.4480    -1.4610 h1         1 HG1       0.060700
     51 C17          6.3370    -0.7600    -0.0080 c3         1 HG1       0.138300
     52 H31          3.3270    -2.0140    -0.2260 ho         1 HG1       0.512000
     53 C18          7.2280    -1.7140    -0.8480 c3         1 HG1       0.128600
     54 O6           8.6180    -1.4540    -0.5670 oh         1 HG1      -0.708000
     55 H30          6.4130    -1.0730     1.0430 h1         1 HG1       0.098700
     56 O7           6.8740     0.5660    -0.1690 oh         1 HG1      -0.692000
     57 H26          0.9080    -1.0330     0.4040 ho         1 HG1       0.549000
     58 H32          6.9770    -2.7550    -0.6030 h1         1 HG1       0.025700
     59 H33          7.0210    -1.5630    -1.9170 h1         1 HG1       0.025700
     60 H34          9.1440    -2.1420    -1.0420 ho         1 HG1       0.500000
     61 H35          7.8380     0.3960    -0.3100 ho         1 HG1       0.490000
@<TRIPOS>BOND
     1     1     2 1   
     2     1     6 1   
     3     1    23 1   
     4     1    24 1   
     5     2     3 1   
     6     2    25 1   
     7     2    26 1   
     8     3     4 1   
     9     3    27 1   
    10     3    28 1   
    11     4     5 1   
    12     4    29 1   
    13     4    30 1   
    14     5     6 1   
    15     5    31 1   
    16     5    32 1   
    17     6     7 1   
    18     6    33 1   
    19     7     8 1   
    20     7    34 1   
    21     7    35 1   
    22     8     9 1   
    23     8    36 1   
    24     8    37 1   
    25     9    10 1   
    26     9    38 1   
    27     9    39 1   
    28    10    11 2   
    29    10    12 1   
    30    12    13 1   
    31    12    16 1   
    32    13    14 1   
    33    13    40 1   
    34    13    41 1   
    35    14    15 1   
    36    14    42 1   
    37    14    43 1   
    38    15    44 1   
    39    16    17 1   
    40    16    45 1   
    41    16    46 1   
    42    17    18 1   
    43    17    19 1   
    44    17    47 1   
    45    19    20 1   
    46    19    21 1   
    47    19    48 1   
    48    20    49 1   
    49    21    22 1   
    50    21    50 1   
    51    21    51 1   
    52    22    52 1   
    53    47    57 1   
    54    51    53 1   
    55    51    55 1   
    56    51    56 1   
    57    53    54 1   
    58    53    58 1   
    59    53    59 1   
    60    54    60 1   
    61    56    61 1   
@<TRIPOS>SUBSTRUCTURE
     1 HG1         1 TEMP              0 ****  ****    0 ROOT
