@<TRIPOS>MOLECULE
HG4
   88    93     1     0     0
SMALL
bcc


@<TRIPOS>ATOM
      1 C10          0.9220     4.2850     1.5330 cc         1 HG4       0.326600
      2 C15          1.2890     2.9630     1.2520 cc         1 HG4      -0.287300
      3 C17          2.6040     3.0380     0.8330 cd         1 HG4      -0.184400
      4 C22          3.7230    -0.4660     0.4950 cc         1 HG4       0.489900
      5 C24          5.0150    -2.0120    -0.1440 ca         1 HG4       0.070900
      6 C28          4.7160    -4.7560    -0.2640 ca         1 HG4      -0.093000
      7 C01          4.2180     5.5120    -0.8830 c3         1 HG4      -0.110100
      8 C11         -0.3870     4.7880     2.0290 c3         1 HG4      -0.121400
      9 C18          3.4880     1.9690     0.3360 c          1 HG4       0.722700
     10 C25          6.0690    -2.7740    -0.6260 ca         1 HG4      -0.006000
     11 C27          5.9210    -4.1560    -0.6700 ca         1 HG4      -0.177600
     12 C30          3.6510    -4.0110     0.2080 ca         1 HG4      -0.144000
     13 C32          3.8270    -2.6360     0.2670 ca         1 HG4      -0.061200
     14 C37          0.6990    -1.5800    -0.1840 c3         1 HG4      -0.103900
     15 C40         -0.7690    -1.5430     0.2210 c3         1 HG4      -0.103900
     16 C43         -1.6820    -1.6520    -0.9940 c3         1 HG4       0.055300
     17 C47         -3.7410    -0.2820    -0.4710 cc         1 HG4       0.489900
     18 C50         -3.3770     2.1340    -0.3020 c          1 HG4       0.722700
     19 C52         -2.4510     3.1610    -0.8130 cc         1 HG4      -0.184400
     20 C53         -1.1450     3.0230    -1.2420 cd         1 HG4      -0.287300
     21 C55         -0.7180     4.3260    -1.5250 cd         1 HG4       0.326600
     22 C56          0.6110     4.7690    -2.0280 c3         1 HG4      -0.121400
     23 C65         -3.9260     5.7200     0.9100 c3         1 HG4      -0.110100
     24 C70         -5.0970    -1.7650     0.1850 ca         1 HG4       0.070900
     25 C71         -6.1810    -2.4780     0.6770 ca         1 HG4      -0.006000
     26 C73         -6.0910    -3.8640     0.7360 ca         1 HG4      -0.177600
     27 C74         -4.9140    -4.5190     0.3320 ca         1 HG4      -0.093000
     28 C76         -3.8200    -3.8240    -0.1510 ca         1 HG4      -0.144000
     29 C78         -3.9380    -2.4440    -0.2230 ca         1 HG4      -0.061200
     30 C79         -7.2690    -4.6110     1.2730 c          1 HG4       0.686200
     31 C84          7.0690    -4.9580    -1.1920 c          1 HG4       0.686200
     32 N08          2.9500     4.3450     0.8870 na         1 HG4       0.153400
     33 N09          1.9440     5.0960     1.3070 nd         1 HG4      -0.506300
     34 N20          3.1410     0.7370     0.8290 ns         1 HG4      -0.491900
     35 N23          4.9170    -0.6500     0.0200 nd         1 HG4      -0.551600
     36 N33          3.0080    -1.6180     0.6820 na         1 HG4      -0.181800
     37 N46         -3.0770    -1.4660    -0.6480 na         1 HG4      -0.181800
     38 N60         -1.6980     5.1860    -1.2920 nc         1 HG4      -0.506300
     39 N61         -2.7350     4.4820    -0.8640 na         1 HG4       0.153400
     40 N69         -4.9420    -0.4100     0.0060 nd         1 HG4      -0.551600
     41 N80         -7.3540    -5.9110     0.9440 nt         1 HG4      -0.672500
     42 N85          7.0980    -6.2560    -0.8460 nt         1 HG4      -0.672500
     43 O19          4.3970     2.1550    -0.4410 o          1 HG4      -0.520100
     44 O51         -4.2490     2.3580     0.5060 o          1 HG4      -0.520100
     45 O83         -8.1020    -4.0580     1.9790 o          1 HG4      -0.601100
     46 O88          7.9280    -4.4490    -1.8990 o          1 HG4      -0.601100
     47 H16          0.6580     2.0900     1.3150 ha         1 HG4       0.155000
     48 H29          4.5870    -5.8280    -0.3420 ha         1 HG4       0.129000
     49 H04          4.1010     4.7000    -1.5990 hc         1 HG4       0.052700
     50 H03          3.4200     6.2360    -1.0440 hc         1 HG4       0.052700
     51 H02          5.1680     6.0070    -1.0820 hc         1 HG4       0.052700
     52 H06          5.0180     4.2930     0.7120 h1         1 HG4       0.073700
     53 H07          4.3300     5.8130     1.2510 h1         1 HG4       0.073700
     54 H13         -0.4880     4.6380     3.1050 hc         1 HG4       0.051367
     55 H12         -0.5000     5.8510     1.8260 hc         1 HG4       0.051367
     56 H14         -1.2120     4.2620     1.5500 hc         1 HG4       0.051367
     57 H26          6.9870    -2.3020    -0.9510 ha         1 HG4       0.175000
     58 H31          2.7280    -4.4920     0.5050 ha         1 HG4       0.136000
     59 H35          1.3610    -1.0100     1.8050 h1         1 HG4       0.059950
     60 H36          1.4620    -2.7140     1.4930 h1         1 HG4       0.059950
     61 H38          0.9580    -0.6610    -0.7180 hc         1 HG4       0.058700
     62 H39          0.8810    -2.4060    -0.8770 hc         1 HG4       0.058700
     63 H41         -0.9920    -2.3610     0.9110 hc         1 HG4       0.058700
     64 H42         -0.9800    -0.6150     0.7590 hc         1 HG4       0.058700
     65 H44         -1.4010    -0.9310    -1.7640 h1         1 HG4       0.059950
     66 H45         -1.5840    -2.6310    -1.4610 h1         1 HG4       0.059950
     67 H54         -0.5580     2.1210    -1.3110 ha         1 HG4       0.155000
     68 H59          0.7090     4.5890    -3.1000 hc         1 HG4       0.051367
     69 H58          0.7610     5.8320    -1.8510 hc         1 HG4       0.051367
     70 H57          1.4140     4.2240    -1.5340 hc         1 HG4       0.051367
     71 H63         -4.8000     4.5180    -0.6580 h1         1 HG4       0.073700
     72 H64         -4.0590     6.0030    -1.2250 h1         1 HG4       0.073700
     73 H66         -3.8260     4.9110     1.6320 hc         1 HG4       0.052700
     74 H67         -3.1010     6.4180     1.0510 hc         1 HG4       0.052700
     75 H68         -4.8550     6.2510     1.1210 hc         1 HG4       0.052700
     76 H72         -7.0770    -1.9640     1.0010 ha         1 HG4       0.175000
     77 H75         -4.8300    -5.5940     0.4200 ha         1 HG4       0.129000
     78 H77         -2.9200    -4.3450    -0.4480 ha         1 HG4       0.136000
     79 H21          2.4460     0.7160     1.5600 hn         1 HG4       0.335000
     80 H49         -2.4450     0.8440    -1.5760 hn         1 HG4       0.335000
     81 H82         -6.7790    -6.3300     0.2340 hn         1 HG4       0.312000
     82 H81         -8.1400    -6.4510     1.2660 hn         1 HG4       0.312000
     83 H87          6.5000    -6.6440    -0.1380 hn         1 HG4       0.312000
     84 H86          7.8620    -6.8330    -1.1580 hn         1 HG4       0.312000
     85 C05          4.2050     4.9950     0.5440 c3         1 HG4       0.057800
     86 C34          1.6060    -1.7390     1.0300 c3         1 HG4       0.055300
     87 N48         -3.1110     0.8920    -0.8200 ns         1 HG4      -0.491900
     88 C62         -3.9570     5.1880    -0.5100 c3         1 HG4       0.057800
@<TRIPOS>BOND
     1     1     2 1   
     2     1     8 1   
     3     1    33 2   
     4     2     3 2   
     5     2    47 1   
     6     3     9 1   
     7     3    32 1   
     8     4    34 1   
     9     4    35 2   
    10     4    36 1   
    11     5    10 ar  
    12     5    13 ar  
    13     5    35 1   
    14     6    11 ar  
    15     6    12 ar  
    16     6    48 1   
    17     7    49 1   
    18     7    50 1   
    19     7    51 1   
    20     7    85 1   
    21     8    54 1   
    22     8    55 1   
    23     8    56 1   
    24     9    34 1   
    25     9    43 2   
    26    10    11 ar  
    27    10    57 1   
    28    11    31 1   
    29    12    13 ar  
    30    12    58 1   
    31    13    36 1   
    32    14    15 1   
    33    14    61 1   
    34    14    62 1   
    35    14    86 1   
    36    15    16 1   
    37    15    63 1   
    38    15    64 1   
    39    16    37 1   
    40    16    65 1   
    41    16    66 1   
    42    17    37 1   
    43    17    40 2   
    44    17    87 1   
    45    18    19 1   
    46    18    44 2   
    47    18    87 1   
    48    19    20 2   
    49    19    39 1   
    50    20    21 1   
    51    20    67 1   
    52    21    22 1   
    53    21    38 2   
    54    22    68 1   
    55    22    69 1   
    56    22    70 1   
    57    23    73 1   
    58    23    74 1   
    59    23    75 1   
    60    23    88 1   
    61    24    25 ar  
    62    24    29 ar  
    63    24    40 1   
    64    25    26 ar  
    65    25    76 1   
    66    26    27 ar  
    67    26    30 1   
    68    27    28 ar  
    69    27    77 1   
    70    28    29 ar  
    71    28    78 1   
    72    29    37 1   
    73    30    41 1   
    74    30    45 2   
    75    31    42 1   
    76    31    46 2   
    77    32    33 1   
    78    32    85 1   
    79    34    79 1   
    80    36    86 1   
    81    38    39 1   
    82    39    88 1   
    83    41    81 1   
    84    41    82 1   
    85    42    83 1   
    86    42    84 1   
    87    52    85 1   
    88    53    85 1   
    89    59    86 1   
    90    60    86 1   
    91    71    88 1   
    92    72    88 1   
    93    80    87 1   
@<TRIPOS>SUBSTRUCTURE
     1 HG4         1 TEMP              0 ****  ****    0 ROOT
