@<TRIPOS>MOLECULE
HG4
   88    93     1     0     0
SMALL
No Charge or Current Charge


@<TRIPOS>ATOM
      1 C10          0.9080     4.2580     1.5960 cc         1 HG4       0.261300
      2 C15          1.4200     2.9830     1.3290 cc         1 HG4      -0.204000
      3 C17          2.7230     3.1490     0.9350 cd         1 HG4      -0.235100
      4 C22          3.7460    -0.3880     0.3880 cc         1 HG4       0.489900
      5 C24          5.1070    -1.9640    -0.1790 ca         1 HG4       0.070900
      6 C28          4.8920    -4.7480    -0.3160 ca         1 HG4      -0.075000
      7 C01          4.3060     5.5670    -0.8510 c3         1 HG4      -0.110100
      8 C11         -0.4980     4.4890     2.0670 c3         1 HG4      -0.121400
      9 C18          3.6960     2.0860     0.5520 c          1 HG4       0.655700
     10 C25          6.2170    -2.7050    -0.6120 ca         1 HG4       0.012000
     11 C27          6.1180    -4.1190    -0.6840 ca         1 HG4      -0.177600
     12 C30          3.7910    -3.9810     0.1160 ca         1 HG4      -0.126000
     13 C32          3.9460    -2.5900     0.1720 ca         1 HG4      -0.061200
     14 C37          0.6960    -1.8310    -0.2030 c3         1 HG4      -0.103900
     15 C40         -0.7760    -1.7970     0.2570 c3         1 HG4      -0.103900
     16 C43         -1.7730    -1.7890    -0.9200 c3         1 HG4       0.084600
     17 C47         -3.7560    -0.2280    -0.3490 cc         1 HG4       0.489900
     18 C50         -3.5850     2.2410    -0.5290 c          1 HG4       0.655700
     19 C52         -2.5700     3.2580    -0.9090 cc         1 HG4      -0.235100
     20 C53         -1.2700     3.0250    -1.2960 cd         1 HG4      -0.204000
     21 C55         -0.6780     4.2710    -1.5690 cd         1 HG4       0.261300
     22 C56          0.7290     4.5110    -2.0330 c3         1 HG4      -0.121400
     23 C65         -4.0100     5.7740     0.8440 c3         1 HG4      -0.110100
     24 C70         -5.1920    -1.7340     0.2250 ca         1 HG4       0.070900
     25 C71         -6.3360    -2.4180     0.6600 ca         1 HG4       0.012000
     26 C73         -6.3050    -3.8350     0.7420 ca         1 HG4      -0.177600
     27 C74         -5.1090    -4.5230     0.3820 ca         1 HG4      -0.075000
     28 C76         -3.9710    -3.8120    -0.0520 ca         1 HG4      -0.126000
     29 C78         -4.0610    -2.4160    -0.1180 ca         1 HG4      -0.061200
     30 C79         -7.5400    -4.5660     1.2110 c          1 HG4       0.619200
     31 C84          7.3160    -4.9120    -1.1510 c          1 HG4       0.619200
     32 N08          2.9150     4.5410     0.9850 na         1 HG4       0.174800
     33 N09          1.7790     5.2240     1.4050 nd         1 HG4      -0.506300
     34 N20          3.1600     0.8270     0.6480 ns         1 HG4      -0.424900
     35 N23          5.0040    -0.5790    -0.0490 nd         1 HG4      -0.551600
     36 N33          3.0790    -1.6050     0.5400 na         1 HG4      -0.211100
     37 N46         -3.1470    -1.4760    -0.4910 na         1 HG4      -0.211100
     38 N60         -1.5090     5.2750    -1.3860 nc         1 HG4      -0.506300
     39 N61         -2.6720     4.6510    -0.9740 na         1 HG4       0.174800
     40 N69         -5.0220    -0.3560     0.0860 nd         1 HG4      -0.551600
     41 N80         -7.4970    -5.9140     1.2850 nt         1 HG4      -0.605500
     42 N85          7.2090    -6.2560    -1.2160 nt         1 HG4      -0.605500
     43 O19          4.8420     2.3180     0.2000 o          1 HG4      -0.520100
     44 O51         -4.7210     2.5260    -0.1840 o          1 HG4      -0.520100
     45 O83         -8.5680    -3.9890     1.5230 o          1 HG4      -0.601100
     46 O88          8.3690    -4.3850    -1.4700 o          1 HG4      -0.601100
     47 H16          0.8510     2.0650     1.4350 ha         1 HG4       0.137000
     48 H29          4.7790    -5.8280    -0.3610 ha         1 HG4       0.111000
     49 H04          4.3220     4.6300    -1.4200 hc         1 HG4       0.052700
     50 H03          3.4790     6.1840    -1.2210 hc         1 HG4       0.052700
     51 H02          5.2440     6.1020    -1.0400 hc         1 HG4       0.052700
     52 H06          5.0090     4.7300     1.0280 h1         1 HG4       0.073700
     53 H07          4.1210     6.2460     1.1970 h1         1 HG4       0.073700
     54 H13         -0.5390     4.5150     3.1610 hc         1 HG4       0.051367
     55 H12         -0.8840     5.4420     1.6880 hc         1 HG4       0.051367
     56 H14         -1.1660     3.6930     1.7200 hc         1 HG4       0.051367
     57 H26          7.1330    -2.1880    -0.8870 ha         1 HG4       0.157000
     58 H31          2.8560    -4.4610     0.3940 ha         1 HG4       0.118000
     59 H35          1.4140    -1.0760     1.7010 h1         1 HG4       0.059950
     60 H36          1.6340    -2.8150     1.4930 h1         1 HG4       0.059950
     61 H38          0.8930    -0.9480    -0.8250 hc         1 HG4       0.058700
     62 H39          0.8700    -2.7120    -0.8350 hc         1 HG4       0.058700
     63 H41         -0.9870    -2.6610     0.9000 hc         1 HG4       0.058700
     64 H42         -0.9350    -0.8990     0.8670 hc         1 HG4       0.058700
     65 H44         -1.4610    -1.0390    -1.6580 h1         1 HG4       0.059950
     66 H45         -1.7570    -2.7630    -1.4260 h1         1 HG4       0.059950
     67 H54         -0.7630     2.0700    -1.3860 ha         1 HG4       0.137000
     68 H59          0.7690     4.6090    -3.1240 hc         1 HG4       0.051367
     69 H58          1.1380     5.4280    -1.5950 hc         1 HG4       0.051367
     70 H57          1.3850     3.6810    -1.7450 hc         1 HG4       0.051367
     71 H63         -4.7510     4.9570    -1.0270 h1         1 HG4       0.073700
     72 H64         -3.7800     6.4200    -1.2100 h1         1 HG4       0.073700
     73 H66         -4.0810     4.8460     1.4220 hc         1 HG4       0.052700
     74 H67         -3.1510     6.3470     1.2110 hc         1 HG4       0.052700
     75 H68         -4.9170     6.3630     1.0230 hc         1 HG4       0.052700
     76 H72         -7.2280    -1.8560     0.9280 ha         1 HG4       0.157000
     77 H75         -5.0480    -5.6070     0.4360 ha         1 HG4       0.111000
     78 H77         -3.0590    -4.3380    -0.3230 ha         1 HG4       0.118000
     79 H21          2.2050     0.8120     0.9610 hn         1 HG4       0.335000
     80 H49         -2.1570     0.8920    -0.9240 hn         1 HG4       0.335000
     81 H82         -6.6570    -6.4100     1.0320 hn         1 HG4       0.312000
     82 H81         -8.3150    -6.4150     1.5970 hn         1 HG4       0.312000
     83 H87          6.3470    -6.7100    -0.9560 hn         1 HG4       0.312000
     84 H86          8.0020    -6.7970    -1.5260 hn         1 HG4       0.312000
     85 C05          4.1430     5.2910     0.6580 c3         1 HG4       0.087100
     86 C34          1.6920    -1.8500     0.9740 c3         1 HG4       0.084600
     87 N48         -3.1120     0.9560    -0.6150 ns         1 HG4      -0.424900
     88 C62         -3.8570     5.4730    -0.6610 c3         1 HG4       0.087100
@<TRIPOS>BOND
     1     1     2 1   
     2     1     8 1   
     3     1    33 2   
     4     2     3 2   
     5     2    47 1   
     6     3     9 1   
     7     3    32 1   
     8     4    34 1   
     9     4    35 2   
    10     4    36 1   
    11     5    10 ar  
    12     5    13 ar  
    13     5    35 1   
    14     6    11 ar  
    15     6    12 ar  
    16     6    48 1   
    17     7    49 1   
    18     7    50 1   
    19     7    51 1   
    20     7    85 1   
    21     8    54 1   
    22     8    55 1   
    23     8    56 1   
    24     9    34 1   
    25     9    43 2   
    26    10    11 ar  
    27    10    57 1   
    28    11    31 1   
    29    12    13 ar  
    30    12    58 1   
    31    13    36 1   
    32    14    15 1   
    33    14    61 1   
    34    14    62 1   
    35    14    86 1   
    36    15    16 1   
    37    15    63 1   
    38    15    64 1   
    39    16    37 1   
    40    16    65 1   
    41    16    66 1   
    42    17    37 1   
    43    17    40 2   
    44    17    87 1   
    45    18    19 1   
    46    18    44 2   
    47    18    87 1   
    48    19    20 2   
    49    19    39 1   
    50    20    21 1   
    51    20    67 1   
    52    21    22 1   
    53    21    38 2   
    54    22    68 1   
    55    22    69 1   
    56    22    70 1   
    57    23    73 1   
    58    23    74 1   
    59    23    75 1   
    60    23    88 1   
    61    24    25 ar  
    62    24    29 ar  
    63    24    40 1   
    64    25    26 ar  
    65    25    76 1   
    66    26    27 ar  
    67    26    30 1   
    68    27    28 ar  
    69    27    77 1   
    70    28    29 ar  
    71    28    78 1   
    72    29    37 1   
    73    30    41 1   
    74    30    45 2   
    75    31    42 1   
    76    31    46 2   
    77    32    33 1   
    78    32    85 1   
    79    34    79 1   
    80    36    86 1   
    81    38    39 1   
    82    39    88 1   
    83    41    81 1   
    84    41    82 1   
    85    42    83 1   
    86    42    84 1   
    87    52    85 1   
    88    53    85 1   
    89    59    86 1   
    90    60    86 1   
    91    71    88 1   
    92    72    88 1   
    93    80    87 1   
@<TRIPOS>SUBSTRUCTURE
     1 HG4         1 TEMP              0 ****  ****    0 ROOT
