@<TRIPOS>MOLECULE
HG5
   76    80     1     0     0
SMALL
No Charge or Current Charge


@<TRIPOS>ATOM
      1 O1          -6.2980     3.0900     0.4420 o          1 HG5      -0.543000
      2 C29         -5.2410     2.4850     0.2760 c          1 HG5       0.553000
      3 N           -3.9800     3.0200     0.6550 n          1 HG5      -0.192400
      4 C           -3.9240     4.3710     1.2640 c3         1 HG5       0.080300
      5 C11         -5.2080     1.0640    -0.3720 c6         1 HG5       0.168500
      6 C12         -5.1270     1.2500    -1.9220 c3         1 HG5      -0.089400
      7 C13         -5.2590    -0.0390    -2.7610 c3         1 HG5      -0.088100
      8 N2          -4.0750     0.1990     0.1010 nh         1 HG5      -0.792300
      9 C4          -4.4120    -1.0650     0.8000 c3         1 HG5       0.291100
     10 C5          -4.9060    -2.1710    -0.1240 ca         1 HG5      -0.113300
     11 C10         -3.9850    -2.9220    -0.8820 ca         1 HG5      -0.092500
     12 C9          -4.4350    -3.9400    -1.7400 ca         1 HG5      -0.117000
     13 C8          -5.8090    -4.2160    -1.8440 ca         1 HG5      -0.103000
     14 C7          -6.7320    -3.4730    -1.0890 ca         1 HG5      -0.117000
     15 C6          -6.2830    -2.4550    -0.2300 ca         1 HG5      -0.092500
     16 C3          -2.8370     0.8310     0.3130 ca         1 HG5       0.408900
     17 C1          -2.7750     2.2110     0.6160 ca         1 HG5      -0.246000
     18 N3          -1.7340     0.0740     0.1960 nb         1 HG5      -0.305000
     19 C14         -0.5610     0.7070     0.3200 ca         1 HG5       0.407900
     20 N1          -0.3770     2.0200     0.5420 nb         1 HG5      -0.248000
     21 C2          -1.4840     2.7750     0.6650 ca         1 HG5       0.134900
     22 N4           0.5410    -0.1270     0.2220 nu         1 HG5      -0.920900
     23 C15          1.9410     0.0270     0.2320 ca         1 HG5       0.293000
     24 C28          2.5740     1.2530    -0.0520 ca         1 HG5      -0.113000
     25 C27          3.9760     1.3550    -0.0400 ca         1 HG5      -0.111000
     26 C20          4.7740     0.2310     0.2490 ca         1 HG5      -0.068300
     27 C19          4.1510    -1.0030     0.5150 ca         1 HG5      -0.167000
     28 C16          2.7410    -1.1140     0.5040 ca         1 HG5       0.090100
     29 O            2.1030    -2.3240     0.7530 os         1 HG5      -0.374100
     30 C17          2.8240    -3.5340     1.0380 c3         1 HG5       0.172600
     31 C18          1.7890    -4.6490     1.2540 c3         1 HG5      -0.096100
     32 C21          6.3070     0.3370     0.2630 c6         1 HG5      -0.013400
     33 C26          6.8170     1.3350     1.3360 c6         1 HG5      -0.069900
     34 C25          8.3620     1.4310     1.3170 c6         1 HG5       0.165800
     35 N5           8.8710     1.8100    -0.0300 n3         1 HG5      -0.715600
     36 C24         10.3360     2.0090    -0.0410 c3         1 HG5       0.153100
     37 C23          8.4240     0.8460    -1.0740 c6         1 HG5       0.165800
     38 C22          6.8810     0.7330    -1.1220 c6         1 HG5      -0.069900
     39 H1          -4.8950     4.6580     1.6880 h1         1 HG5       0.050700
     40 H2          -3.1860     4.3850     2.0760 h1         1 HG5       0.050700
     41 H3          -3.6350     5.1040     0.5010 h1         1 HG5       0.050700
     42 H4          -6.1780     0.6050    -0.1270 h1         1 HG5       0.091700
     43 H5          -5.9230     1.9340    -2.2400 hc         1 HG5       0.055200
     44 H6          -4.1840     1.7420    -2.1880 hc         1 HG5       0.055200
     45 H7          -5.2850     0.2040    -3.8300 hc         1 HG5       0.040033
     46 H8          -4.4060    -0.7050    -2.5880 hc         1 HG5       0.040033
     47 H9          -6.1810    -0.5760    -2.5090 hc         1 HG5       0.040033
     48 H10         -3.5370    -1.4440     1.3460 h1         1 HG5       0.062200
     49 H11         -5.1760    -0.8670     1.5640 h1         1 HG5       0.062200
     50 H12         -2.9210    -2.7080    -0.8100 ha         1 HG5       0.121500
     51 H13         -3.7190    -4.5130    -2.3250 ha         1 HG5       0.113000
     52 H14         -6.1570    -5.0030    -2.5100 ha         1 HG5       0.112000
     53 H15         -7.7960    -3.6860    -1.1690 ha         1 HG5       0.113000
     54 H16         -7.0060    -1.8840     0.3490 ha         1 HG5       0.121500
     55 H17         -1.3220     3.8410     0.8140 h4         1 HG5       0.025100
     56 H18          0.2770    -1.1120     0.2630 hn         1 HG5       0.524000
     57 H19          1.9940     2.1330    -0.3020 ha         1 HG5       0.153000
     58 H20          4.4390     2.3140    -0.2610 ha         1 HG5       0.118000
     59 H21          4.7730    -1.8670     0.7280 ha         1 HG5       0.114000
     60 H22          3.4820    -3.8040     0.2010 h1         1 HG5       0.033700
     61 H23          3.4330    -3.4210     1.9450 h1         1 HG5       0.033700
     62 H24          1.1280    -4.4050     2.0940 hc         1 HG5       0.047700
     63 H25          1.1770    -4.7880     0.3550 hc         1 HG5       0.047700
     64 H26          2.2930    -5.5970     1.4760 hc         1 HG5       0.047700
     65 H27          6.7190    -0.6500     0.5160 hc         1 HG5       0.043700
     66 H28          6.3930     2.3320     1.1640 hc         1 HG5       0.050200
     67 H29          6.4800     1.0180     2.3320 hc         1 HG5       0.050200
     68 H30          8.6770     2.1740     2.0640 h1         1 HG5       0.028950
     69 H31          8.7860     0.4630     1.6240 h1         1 HG5       0.028950
     70 H33         10.8610     1.0750     0.2010 h1         1 HG5       0.029033
     71 H34         10.6740     2.3480    -1.0300 h1         1 HG5       0.029033
     72 H35         10.6290     2.7700     0.6950 h1         1 HG5       0.029033
     73 H36          8.7840     1.1640    -2.0640 h1         1 HG5       0.028950
     74 H37          8.8510    -0.1490    -0.8790 h1         1 HG5       0.028950
     75 H38          6.5890    -0.0110    -1.8740 hc         1 HG5       0.050200
     76 H39          6.4600     1.6930    -1.4500 hc         1 HG5       0.050200
@<TRIPOS>BOND
     1     1     2 2   
     2     2     3 1   
     3     2     5 1   
     4     3     4 1   
     5     3    17 1   
     6     4    39 1   
     7     4    40 1   
     8     4    41 1   
     9     5     6 1   
    10     5     8 1   
    11     5    42 1   
    12     6     7 1   
    13     6    43 1   
    14     6    44 1   
    15     7    45 1   
    16     7    46 1   
    17     7    47 1   
    18     8     9 1   
    19     8    16 1   
    20     9    10 1   
    21     9    48 1   
    22     9    49 1   
    23    10    11 ar  
    24    10    15 ar  
    25    11    12 ar  
    26    11    50 1   
    27    12    13 ar  
    28    12    51 1   
    29    13    14 ar  
    30    13    52 1   
    31    14    15 ar  
    32    14    53 1   
    33    15    54 1   
    34    16    17 ar  
    35    16    18 ar  
    36    17    21 ar  
    37    18    19 ar  
    38    19    20 ar  
    39    19    22 1   
    40    20    21 ar  
    41    21    55 1   
    42    22    23 1   
    43    22    56 1   
    44    23    24 ar  
    45    23    28 ar  
    46    24    25 ar  
    47    24    57 1   
    48    25    26 ar  
    49    25    58 1   
    50    26    27 ar  
    51    26    32 1   
    52    27    28 ar  
    53    27    59 1   
    54    28    29 1   
    55    29    30 1   
    56    30    31 1   
    57    30    60 1   
    58    30    61 1   
    59    31    62 1   
    60    31    63 1   
    61    31    64 1   
    62    32    33 1   
    63    32    38 1   
    64    32    65 1   
    65    33    34 1   
    66    33    66 1   
    67    33    67 1   
    68    34    35 1   
    69    34    68 1   
    70    34    69 1   
    71    35    36 1   
    72    35    37 1   
    73    36    70 1   
    74    36    71 1   
    75    36    72 1   
    76    37    38 1   
    77    37    73 1   
    78    37    74 1   
    79    38    75 1   
    80    38    76 1   
@<TRIPOS>SUBSTRUCTURE
     1 HG5         1 TEMP              0 ****  ****    0 ROOT
