@<TRIPOS>MOLECULE
HG5
   76    80     1     0     0
SMALL
abcg2


@<TRIPOS>ATOM
      1 O1          -6.1600     3.1610     0.6510 o          1 HG5      -0.543000
      2 C29         -5.1470     2.5470     0.3650 c          1 HG5       0.553000
      3 N           -3.9010     3.0820     0.4290 n          1 HG5      -0.192400
      4 C           -3.7100     4.4710     0.7990 c3         1 HG5       0.080300
      5 C11         -5.2000     1.1330    -0.1900 c6         1 HG5       0.168500
      6 C12         -5.2240     1.2440    -1.7240 c3         1 HG5      -0.089400
      7 C13         -5.4810    -0.0590    -2.4630 c3         1 HG5      -0.088100
      8 N2          -4.1100     0.3320     0.3390 nh         1 HG5      -0.792300
      9 C4          -4.3640    -0.9480     0.9800 c3         1 HG5       0.291100
     10 C5          -4.5940    -2.1080     0.0480 ca         1 HG5      -0.113300
     11 C10         -3.5470    -2.6440    -0.7000 ca         1 HG5      -0.092500
     12 C9          -3.7750    -3.6960    -1.5740 ca         1 HG5      -0.117000
     13 C8          -5.0520    -4.2310    -1.7070 ca         1 HG5      -0.103000
     14 C7          -6.0960    -3.7130    -0.9550 ca         1 HG5      -0.117000
     15 C6          -5.8640    -2.6580    -0.0810 ca         1 HG5      -0.092500
     16 C3          -2.8750     0.8740     0.2880 ca         1 HG5       0.408900
     17 C1          -2.7670     2.2850     0.2200 ca         1 HG5      -0.246000
     18 N3          -1.8030     0.1100     0.3320 nb         1 HG5      -0.305000
     19 C14         -0.6090     0.7050     0.2380 ca         1 HG5       0.407900
     20 N1          -0.4050     2.0010     0.0740 nb         1 HG5      -0.248000
     21 C2          -1.4920     2.7780     0.0870 ca         1 HG5       0.134900
     22 N4           0.4370    -0.1640     0.3100 nu         1 HG5      -0.920900
     23 C15          1.8110     0.0440     0.3010 ca         1 HG5       0.293000
     24 C28          2.4490     1.2740     0.1780 ca         1 HG5      -0.113000
     25 C27          3.8380     1.3590     0.1920 ca         1 HG5      -0.111000
     26 C20          4.6300     0.2300     0.3300 ca         1 HG5      -0.068300
     27 C19          3.9940    -1.0070     0.4490 ca         1 HG5      -0.167000
     28 C16          2.6130    -1.1100     0.4320 ca         1 HG5       0.090100
     29 O            1.9330    -2.2720     0.5390 os         1 HG5      -0.374100
     30 C17          2.6450    -3.4960     0.6480 c3         1 HG5       0.172600
     31 C18          1.6360    -4.6190     0.6910 c3         1 HG5      -0.096100
     32 C21          6.1350     0.3050     0.3380 c6         1 HG5      -0.013400
     33 C26          6.6840     1.2170     1.4380 c6         1 HG5      -0.069900
     34 C25          8.2030     1.2620     1.3940 c6         1 HG5       0.165800
     35 N5           8.6820     1.6980     0.0960 n3         1 HG5      -0.715600
     36 C24         10.1210     1.8290     0.0850 c3         1 HG5       0.153100
     37 C23          8.2220     0.8160    -0.9600 c6         1 HG5       0.165800
     38 C22          6.7030     0.7560    -1.0100 c6         1 HG5      -0.069900
     39 H1          -4.6640     4.9010     1.0840 h1         1 HG5       0.050700
     40 H2          -3.0220     4.5480     1.6410 h1         1 HG5       0.050700
     41 H3          -3.3080     5.0450    -0.0360 h1         1 HG5       0.050700
     42 H4          -6.1340     0.6850     0.1510 h1         1 HG5       0.091700
     43 H5          -6.0090     1.9600    -1.9810 hc         1 HG5       0.055200
     44 H6          -4.2860     1.6860    -2.0710 hc         1 HG5       0.055200
     45 H7          -5.5570     0.1350    -3.5330 hc         1 HG5       0.040033
     46 H8          -4.6810    -0.7810    -2.3130 hc         1 HG5       0.040033
     47 H9          -6.4130    -0.5250    -2.1420 hc         1 HG5       0.040033
     48 H10         -3.5200    -1.1560     1.6380 h1         1 HG5       0.062200
     49 H11         -5.2390    -0.8220     1.6230 h1         1 HG5       0.062200
     50 H12         -2.5530    -2.2280    -0.5990 ha         1 HG5       0.121500
     51 H13         -2.9560    -4.1030    -2.1530 ha         1 HG5       0.113000
     52 H14         -5.2270    -5.0520    -2.3900 ha         1 HG5       0.112000
     53 H15         -7.0920    -4.1270    -1.0490 ha         1 HG5       0.113000
     54 H16         -6.6830    -2.2540     0.5030 ha         1 HG5       0.121500
     55 H17         -1.3100     3.8440     0.0120 h4         1 HG5       0.025100
     56 H18          0.1470    -1.1230     0.4230 hn         1 HG5       0.524000
     57 H19          1.8560     2.1670     0.0700 ha         1 HG5       0.153000
     58 H20          4.2930     2.3370     0.0890 ha         1 HG5       0.118000
     59 H21          4.6050    -1.8950     0.5580 ha         1 HG5       0.114000
     60 H22          3.3170    -3.6170    -0.2070 h1         1 HG5       0.033700
     61 H23          3.2590    -3.4940     1.5540 h1         1 HG5       0.033700
     62 H24          0.9730    -4.5270     1.5510 hc         1 HG5       0.047700
     63 H25          1.0310    -4.6420    -0.2160 hc         1 HG5       0.047700
     64 H26          2.1580    -5.5710     0.7690 hc         1 HG5       0.047700
     65 H27          6.5160    -0.7050     0.5330 hc         1 HG5       0.043700
     66 H28          6.2930     2.2310     1.3150 hc         1 HG5       0.050200
     67 H29          6.3580     0.8650     2.4190 hc         1 HG5       0.050200
     68 H30          8.5730     1.9570     2.1530 h1         1 HG5       0.028950
     69 H31          8.6060     0.2660     1.6560 h1         1 HG5       0.028950
     70 H33         10.6460     0.8830     0.2920 h1         1 HG5       0.029033
     71 H34         10.4570     2.1880    -0.8890 h1         1 HG5       0.029033
     72 H35         10.4380     2.5540     0.8360 h1         1 HG5       0.029033
     73 H36          8.6120     1.1800    -1.9140 h1         1 HG5       0.028950
     74 H37          8.6160    -0.2090    -0.8300 h1         1 HG5       0.028950
     75 H38          6.3940     0.0670    -1.8000 hc         1 HG5       0.050200
     76 H39          6.3060     1.7420    -1.2690 hc         1 HG5       0.050200
@<TRIPOS>BOND
     1     1     2 2   
     2     2     3 1   
     3     2     5 1   
     4     3     4 1   
     5     3    17 1   
     6     4    39 1   
     7     4    40 1   
     8     4    41 1   
     9     5     6 1   
    10     5     8 1   
    11     5    42 1   
    12     6     7 1   
    13     6    43 1   
    14     6    44 1   
    15     7    45 1   
    16     7    46 1   
    17     7    47 1   
    18     8     9 1   
    19     8    16 1   
    20     9    10 1   
    21     9    48 1   
    22     9    49 1   
    23    10    11 ar  
    24    10    15 ar  
    25    11    12 ar  
    26    11    50 1   
    27    12    13 ar  
    28    12    51 1   
    29    13    14 ar  
    30    13    52 1   
    31    14    15 ar  
    32    14    53 1   
    33    15    54 1   
    34    16    17 ar  
    35    16    18 ar  
    36    17    21 ar  
    37    18    19 ar  
    38    19    20 ar  
    39    19    22 1   
    40    20    21 ar  
    41    21    55 1   
    42    22    23 1   
    43    22    56 1   
    44    23    24 ar  
    45    23    28 ar  
    46    24    25 ar  
    47    24    57 1   
    48    25    26 ar  
    49    25    58 1   
    50    26    27 ar  
    51    26    32 1   
    52    27    28 ar  
    53    27    59 1   
    54    28    29 1   
    55    29    30 1   
    56    30    31 1   
    57    30    60 1   
    58    30    61 1   
    59    31    62 1   
    60    31    63 1   
    61    31    64 1   
    62    32    33 1   
    63    32    38 1   
    64    32    65 1   
    65    33    34 1   
    66    33    66 1   
    67    33    67 1   
    68    34    35 1   
    69    34    68 1   
    70    34    69 1   
    71    35    36 1   
    72    35    37 1   
    73    36    70 1   
    74    36    71 1   
    75    36    72 1   
    76    37    38 1   
    77    37    73 1   
    78    37    74 1   
    79    38    75 1   
    80    38    76 1   
@<TRIPOS>SUBSTRUCTURE
     1 HG5         1 TEMP              0 ****  ****    0 ROOT
