@<TRIPOS>MOLECULE
HG6
   26    28     1     0     0
SMALL
bcc


@<TRIPOS>ATOM
      1 CAA        -20.8510     1.3970    -7.9000 ca         1 HG6      -0.123600
      2 CAB        -21.5960     0.3460    -8.4350 ca         1 HG6      -0.122600
      3 CAC        -20.4520     2.4530    -8.7150 ca         1 HG6      -0.093000
      4 CAD        -21.9380     0.3640    -9.7850 ca         1 HG6      -0.097000
      5 CAE        -20.7960     2.4640   -10.0550 ca         1 HG6      -0.131000
      6 CAF        -21.5420     1.4190   -10.5890 ca         1 HG6      -0.131000
      7 CAG        -20.4770     1.3970    -6.4710 c          1 HG6       0.590300
      8 CAH        -20.9310     0.2600    -5.6260 ca         1 HG6      -0.161600
      9 CAI        -22.0290    -0.8090    -7.6070 c          1 HG6       0.595300
     10 CAJ        -21.6970    -0.7940    -6.1590 ca         1 HG6      -0.157600
     11 CAK        -20.5750     0.2820    -4.2860 ca         1 HG6      -0.058000
     12 CAL        -20.9780    -0.7260    -3.4220 ca         1 HG6      -0.116600
     13 CAM        -22.1040    -1.7970    -5.2710 ca         1 HG6       0.053400
     14 CAN        -21.7550    -1.7550    -3.9300 ca         1 HG6      -0.097000
     15 CAO        -20.5730    -0.7160    -1.9440 c          1 HG6       0.928200
     16 OAP        -21.0480    -1.6270    -1.2460 o          1 HG6      -0.805800
     17 OAQ        -19.8090     0.2000    -1.6010 o          1 HG6      -0.805800
     18 OAS        -19.8240     2.3020    -5.9970 o          1 HG6      -0.522100
     19 OAT        -22.6290    -1.7250    -8.1260 o          1 HG6      -0.523100
     20 CL1        -23.0650    -3.1550    -5.7420 cl         1 HG6      -0.118400
     21 H1         -19.8730     3.2660    -8.2970 ha         1 HG6       0.151000
     22 H2         -22.5170    -0.4460   -10.2060 ha         1 HG6       0.150000
     23 H3         -20.4850     3.2850   -10.6860 ha         1 HG6       0.126000
     24 H4         -21.8140     1.4270   -11.6370 ha         1 HG6       0.125000
     25 H5         -19.9750     1.0960    -3.9040 ha         1 HG6       0.176000
     26 H6         -22.0890    -2.5430    -3.2690 ha         1 HG6       0.170000
@<TRIPOS>BOND
     1     1     2 ar  
     2     1     3 ar  
     3     1     7 1   
     4     2     4 ar  
     5     2     9 1   
     6     3     5 ar  
     7     3    21 1   
     8     4     6 ar  
     9     4    22 1   
    10     5     6 ar  
    11     5    23 1   
    12     6    24 1   
    13     7     8 1   
    14     7    18 2   
    15     8    10 ar  
    16     8    11 ar  
    17     9    10 1   
    18     9    19 2   
    19    10    13 ar  
    20    11    12 ar  
    21    11    25 1   
    22    12    14 ar  
    23    12    15 1   
    24    13    14 ar  
    25    13    20 1   
    26    14    26 1   
    27    15    16 1   
    28    15    17 1   
@<TRIPOS>SUBSTRUCTURE
     1 HG6         1 TEMP              0 ****  ****    0 ROOT
