@<TRIPOS>MOLECULE
HG6
   26    28     1     0     0
SMALL
No Charge or Current Charge


@<TRIPOS>ATOM
      1 CAA        -20.8480     1.4120    -7.9250 ca         1 HG6      -0.123600
      2 CAB        -21.6170     0.3550    -8.4670 ca         1 HG6      -0.122600
      3 CAC        -20.4310     2.4720    -8.7650 ca         1 HG6      -0.075000
      4 CAD        -21.9520     0.3840    -9.8430 ca         1 HG6      -0.079000
      5 CAE        -20.7720     2.4860   -10.1250 ca         1 HG6      -0.113000
      6 CAF        -21.5330     1.4420   -10.6650 ca         1 HG6      -0.113000
      7 CAG        -20.4690     1.4210    -6.4680 c          1 HG6       0.590300
      8 CAH        -20.9320     0.2710    -5.6010 ca         1 HG6      -0.161600
      9 CAI        -22.0850    -0.8000    -7.6070 c          1 HG6       0.595300
     10 CAJ        -21.7070    -0.8020    -6.1300 ca         1 HG6      -0.157600
     11 CAK        -20.5750     0.2810    -4.2320 ca         1 HG6      -0.040000
     12 CAL        -20.9670    -0.7520    -3.3610 ca         1 HG6      -0.116600
     13 CAM        -22.1010    -1.8450    -5.2400 ca         1 HG6       0.145000
     14 CAN        -21.7320    -1.8090    -3.8860 ca         1 HG6      -0.079000
     15 CAO        -20.5760    -0.7270    -1.8930 c          1 HG6       0.717600
     16 OAP        -20.9410    -1.6480    -1.1760 o          1 HG6      -0.700500
     17 OAQ        -19.9100     0.2130    -1.4820 o          1 HG6      -0.700500
     18 OAS        -19.8020     2.3370    -5.9990 o          1 HG6      -0.522100
     19 OAT        -22.7490    -1.6930    -8.1200 o          1 HG6      -0.523100
     20 Cl1        -23.0620    -3.2520    -5.7170 cl         1 HG6      -0.210000
     21 H1         -19.8390     3.2930    -8.3640 ha         1 HG6       0.133000
     22 H2         -22.5430    -0.4160   -10.2860 ha         1 HG6       0.132000
     23 H3         -20.4450     3.3070   -10.7600 ha         1 HG6       0.108000
     24 H4         -21.7980     1.4500   -11.7200 ha         1 HG6       0.107000
     25 H5         -19.9830     1.1050    -3.8370 ha         1 HG6       0.158000
     26 H6         -22.0510    -2.6230    -3.2390 ha         1 HG6       0.152000
@<TRIPOS>BOND
     1     1     2 ar  
     2     1     3 ar  
     3     1     7 1   
     4     2     4 ar  
     5     2     9 1   
     6     3     5 ar  
     7     3    21 1   
     8     4     6 ar  
     9     4    22 1   
    10     5     6 ar  
    11     5    23 1   
    12     6    24 1   
    13     7     8 1   
    14     7    18 2   
    15     8    10 ar  
    16     8    11 ar  
    17     9    10 1   
    18     9    19 2   
    19    10    13 ar  
    20    11    12 ar  
    21    11    25 1   
    22    12    14 ar  
    23    12    15 1   
    24    13    14 ar  
    25    13    20 1   
    26    14    26 1   
    27    15    16 1   
    28    15    17 1   
@<TRIPOS>SUBSTRUCTURE
     1 HG6         1 TEMP              0 ****  ****    0 ROOT
