@<TRIPOS>MOLECULE
HG7
   39    39     1     0     0
SMALL
bcc


@<TRIPOS>ATOM
      1 C            0.5030    -1.7600     0.0820 c          1 HG7       0.676100
      2 N            2.4660    -2.7830     1.0650 n8         1 HG7      -0.872800
      3 O            0.4840    -2.5660    -0.8370 o          1 HG7      -0.603100
      4 C1           2.5410    -0.3980     0.2580 ca         1 HG7      -0.095300
      5 C2           2.4840     0.8800     0.7980 ca         1 HG7      -0.158000
      6 C3           3.1750     1.9340     0.2030 ca         1 HG7       0.140100
      7 O3           3.0830     3.1460     0.7860 oh         1 HG7      -0.496100
      8 C4           3.9250     1.7050    -0.9470 ca         1 HG7      -0.218000
      9 C5           3.9760     0.4260    -1.4840 ca         1 HG7      -0.084000
     10 C6           3.2930    -0.6250    -0.8930 ca         1 HG7      -0.151000
     11 CA           1.7640    -1.5280     0.9160 c3         1 HG7       0.133800
     12 N1A         -0.5400    -0.9890     0.4060 ns         1 HG7      -0.568900
     13 C2A         -1.7880    -0.9970    -0.3310 c3         1 HG7       0.105000
     14 C3A         -2.8050    -0.0880     0.3390 c3         1 HG7      -0.097400
     15 C4A         -4.1220    -0.0890    -0.4240 c3         1 HG7       0.168800
     16 N5A         -5.1590     0.6970     0.2180 n3         1 HG7      -0.713600
     17 C6A         -4.9040     2.1200     0.1370 c3         1 HG7       0.149600
     18 C7A         -6.4610     0.3840    -0.3300 c3         1 HG7       0.149600
     19 H2           2.6530    -3.1930     0.1590 hn         1 HG7       0.356800
     20 H            3.3640    -2.6180     1.5000 hn         1 HG7       0.356800
     21 H2B          1.9120     1.0660     1.7010 ha         1 HG7       0.141000
     22 HO3          3.6170     3.7900     0.3080 ho         1 HG7       0.427000
     23 H4           4.4700     2.5150    -1.4180 ha         1 HG7       0.133000
     24 H5           4.5600     0.2540    -2.3790 ha         1 HG7       0.134000
     25 H6           3.3510    -1.6140    -1.3300 ha         1 HG7       0.143000
     26 HA           1.4660    -1.1900     1.9130 h1         1 HG7       0.071700
     27 HN1A        -0.4480    -0.3460     1.1760 hn         1 HG7       0.315500
     28 H2A         -1.6160    -0.6700    -1.3610 h1         1 HG7       0.051700
     29 H2AA        -2.1740    -2.0180    -0.3830 h1         1 HG7       0.051700
     30 H3A         -2.9870    -0.4270     1.3630 hc         1 HG7       0.051700
     31 H3AA        -2.3920     0.9220     0.4030 hc         1 HG7       0.051700
     32 H4A         -3.9460     0.2410    -1.4640 h1         1 HG7       0.032700
     33 H4AA        -4.4790    -1.1210    -0.4880 h1         1 HG7       0.032700
     34 H6A         -4.8500     2.4880    -0.9000 h1         1 HG7       0.030867
     35 H6AA        -5.7010     2.6680     0.6410 h1         1 HG7       0.030867
     36 H6AB        -3.9690     2.3820     0.6310 h1         1 HG7       0.030867
     37 H7A         -6.6730    -0.6800    -0.2140 h1         1 HG7       0.030867
     38 H7AA        -7.2340     0.9360     0.2060 h1         1 HG7       0.030867
     39 H7AB        -6.5580     0.6310    -1.3990 h1         1 HG7       0.030867
@<TRIPOS>BOND
     1     1     3 2   
     2     1    11 1   
     3     1    12 1   
     4     2    11 1   
     5     2    19 1   
     6     2    20 1   
     7     4     5 ar  
     8     4    10 ar  
     9     4    11 1   
    10     5     6 ar  
    11     5    21 1   
    12     6     7 1   
    13     6     8 ar  
    14     7    22 1   
    15     8     9 ar  
    16     8    23 1   
    17     9    10 ar  
    18     9    24 1   
    19    10    25 1   
    20    11    26 1   
    21    12    13 1   
    22    12    27 1   
    23    13    14 1   
    24    13    28 1   
    25    13    29 1   
    26    14    15 1   
    27    14    30 1   
    28    14    31 1   
    29    15    16 1   
    30    15    32 1   
    31    15    33 1   
    32    16    17 1   
    33    16    18 1   
    34    17    34 1   
    35    17    35 1   
    36    17    36 1   
    37    18    37 1   
    38    18    38 1   
    39    18    39 1   
@<TRIPOS>SUBSTRUCTURE
     1 HG7         1 TEMP              0 ****  ****    0 ROOT
