@<TRIPOS>MOLECULE
HG7
   39    39     1     0     0
SMALL
No Charge or Current Charge


@<TRIPOS>ATOM
      1 C            0.4980    -1.8900     0.0970 c          1 HG7       0.676100
      2 N            2.7810    -2.7030     1.0770 n8         1 HG7      -0.872800
      3 O            0.4180    -2.7660    -0.7590 o          1 HG7      -0.603100
      4 C1           2.5530    -0.3790     0.2630 ca         1 HG7      -0.095300
      5 C2           2.8180     0.7750     1.0290 ca         1 HG7      -0.158000
      6 C3           3.4860     1.8700     0.4580 ca         1 HG7       0.140100
      7 O3           3.7330     2.9780     1.2100 oh         1 HG7      -0.496100
      8 C4           3.8980     1.8240    -0.8820 ca         1 HG7      -0.218000
      9 C5           3.6430     0.6780    -1.6540 ca         1 HG7      -0.084000
     10 C6           2.9740    -0.4190    -1.0830 ca         1 HG7      -0.151000
     11 CA           1.8210    -1.5670     0.8890 c3         1 HG7       0.133800
     12 N1A         -0.5910    -1.1050     0.4230 ns         1 HG7      -0.568900
     13 C2A         -1.9100    -1.2230    -0.1990 c3         1 HG7       0.105000
     14 C3A         -2.8550    -0.0970     0.2580 c3         1 HG7      -0.097400
     15 C4A         -4.2530    -0.2030    -0.3910 c3         1 HG7       0.168800
     16 N5A         -5.2540     0.7650     0.1250 n3         1 HG7      -0.713600
     17 C6A         -4.8950     2.1850    -0.1090 c3         1 HG7       0.149600
     18 C7A         -6.6210     0.4590    -0.3540 c3         1 HG7       0.149600
     19 H2           3.1130    -3.0080     0.1570 hn         1 HG7       0.356800
     20 H            3.6240    -2.3500     1.5430 hn         1 HG7       0.356800
     21 H2B          2.5060     0.8280     2.0700 ha         1 HG7       0.141000
     22 HO3          4.2030     3.6300     0.6520 ho         1 HG7       0.427000
     23 H4           4.4170     2.6690    -1.3300 ha         1 HG7       0.133000
     24 H5           3.9630     0.6380    -2.6940 ha         1 HG7       0.134000
     25 H6           2.7820    -1.3010    -1.6920 ha         1 HG7       0.143000
     26 HA           1.4910    -1.2700     1.8950 h1         1 HG7       0.071700
     27 HN1A        -0.4460    -0.3920     1.1280 hn         1 HG7       0.315500
     28 H2A         -1.7940    -1.1820    -1.2910 h1         1 HG7       0.051700
     29 H2AA        -2.3410    -2.1980     0.0660 h1         1 HG7       0.051700
     30 H3A         -2.9610    -0.1360     1.3490 hc         1 HG7       0.051700
     31 H3AA        -2.3990     0.8670     0.0060 hc         1 HG7       0.051700
     32 H4A         -4.1450    -0.0860    -1.4790 h1         1 HG7       0.032700
     33 H4AA        -4.6200    -1.2230    -0.2150 h1         1 HG7       0.032700
     34 H6A         -4.7830     2.3890    -1.1830 h1         1 HG7       0.030867
     35 H6AA        -5.6740     2.8510     0.2860 h1         1 HG7       0.030867
     36 H6AB        -3.9550     2.4470     0.3940 h1         1 HG7       0.030867
     37 H7A         -6.9020    -0.5710    -0.0950 h1         1 HG7       0.030867
     38 H7AA        -7.3550     1.1340     0.1050 h1         1 HG7       0.030867
     39 H7AB        -6.6870     0.5690    -1.4450 h1         1 HG7       0.030867
@<TRIPOS>BOND
     1     1     3 2   
     2     1    11 1   
     3     1    12 1   
     4     2    11 1   
     5     2    19 1   
     6     2    20 1   
     7     4     5 ar  
     8     4    10 ar  
     9     4    11 1   
    10     5     6 ar  
    11     5    21 1   
    12     6     7 1   
    13     6     8 ar  
    14     7    22 1   
    15     8     9 ar  
    16     8    23 1   
    17     9    10 ar  
    18     9    24 1   
    19    10    25 1   
    20    11    26 1   
    21    12    13 1   
    22    12    27 1   
    23    13    14 1   
    24    13    28 1   
    25    13    29 1   
    26    14    15 1   
    27    14    30 1   
    28    14    31 1   
    29    15    16 1   
    30    15    32 1   
    31    15    33 1   
    32    16    17 1   
    33    16    18 1   
    34    17    34 1   
    35    17    35 1   
    36    17    36 1   
    37    18    37 1   
    38    18    38 1   
    39    18    39 1   
@<TRIPOS>SUBSTRUCTURE
     1 HG7         1 TEMP              0 ****  ****    0 ROOT
