@<TRIPOS>MOLECULE
HG8
   76    80     1     0     0
SMALL
No Charge or Current Charge


@<TRIPOS>ATOM
      1 O1          -6.1990    -3.8120     0.5160 o          1 HG8      -0.549000
      2 C28         -5.2000    -3.0980     0.4560 c          1 HG8       0.560000
      3 N           -3.8870    -3.6330     0.3870 n          1 HG8      -0.183400
      4 C           -3.7050    -5.1070     0.4070 c3         1 HG8       0.080300
      5 C10         -5.3310    -1.5380     0.4480 c6         1 HG8       0.170500
      6 C11         -5.7290    -1.0640     1.8850 c3         1 HG8      -0.093400
      7 C12         -6.6140     0.2020     1.9440 c3         1 HG8      -0.094100
      8 N2          -4.1350    -0.7670    -0.0450 nh         1 HG8      -0.795300
      9 C4          -4.3670     0.5510    -0.6940 c3         1 HG8       0.318100
     10 C5          -3.7030     1.7440    -0.0440 cc         1 HG8      -0.211300
     11 S           -3.2580     1.7660     1.6600 ss         1 HG8       0.218000
     12 C9          -2.5970     3.3880     1.5010 cc         1 HG8      -0.248000
     13 C7          -2.7200     3.8660     0.2200 cd         1 HG8      -0.096300
     14 C8          -2.2540     5.2230    -0.2350 c3         1 HG8      -0.025800
     15 C6          -3.3480     2.9260    -0.6460 cd         1 HG8      -0.132000
     16 C3          -2.8680    -1.3980    -0.0660 ca         1 HG8       0.405900
     17 C1          -2.7330    -2.7900     0.1420 ca         1 HG8      -0.250000
     18 N3          -1.7960    -0.6170    -0.2780 nb         1 HG8      -0.297000
     19 C13         -0.5960    -1.2000    -0.2280 ca         1 HG8       0.409900
     20 N1          -0.3430    -2.4910     0.0360 nb         1 HG8      -0.247000
     21 C2          -1.4120    -3.2850     0.2270 ca         1 HG8       0.134900
     22 N4           0.4540    -0.3150    -0.4030 nu         1 HG8      -0.919900
     23 C14          1.8600    -0.3810    -0.3900 ca         1 HG8       0.285000
     24 C27          2.5740    -1.5780    -0.5910 ca         1 HG8      -0.098000
     25 C26          3.9790    -1.5830    -0.5730 ca         1 HG8      -0.117000
     26 C19          4.6980    -0.3910    -0.3600 ca         1 HG8      -0.062300
     27 C18          3.9930     0.8130    -0.1740 ca         1 HG8      -0.172000
     28 C15          2.5790     0.8270    -0.1920 ca         1 HG8       0.097100
     29 O            1.8560     2.0000    -0.0210 os         1 HG8      -0.366100
     30 C16          2.4820     3.2720     0.2150 c3         1 HG8       0.171600
     31 C17          1.3620     4.3150     0.3500 c3         1 HG8      -0.097100
     32 C20          6.2350    -0.3910    -0.3390 c6         1 HG8      -0.013400
     33 C25          6.8400    -0.8400    -1.6940 c6         1 HG8      -0.069900
     34 C24          8.3880    -0.8450    -1.6400 c6         1 HG8       0.165800
     35 N5           8.8940    -1.7030    -0.5340 n3         1 HG8      -0.715600
     36 C23         10.3690    -1.8040    -0.5320 c3         1 HG8       0.153100
     37 C22          8.3550    -1.2700     0.7850 c6         1 HG8       0.165800
     38 C21          6.8070    -1.2770     0.7980 c6         1 HG8      -0.069900
     39 H1          -4.6620    -5.6420     0.3670 h1         1 HG8       0.052033
     40 H2          -3.1060    -5.4160    -0.4590 h1         1 HG8       0.052033
     41 H3          -3.1820    -5.3970     1.3270 h1         1 HG8       0.052033
     42 H4          -6.1870    -1.3590    -0.2200 h1         1 HG8       0.084700
     43 H5          -6.2920    -1.8580     2.3910 hc         1 HG8       0.061700
     44 H6          -4.8290    -0.9100     2.4930 hc         1 HG8       0.061700
     45 H7          -6.8740     0.4350     2.9830 hc         1 HG8       0.039367
     46 H8          -6.1030     1.0730     1.5230 hc         1 HG8       0.039367
     47 H9          -7.5450     0.0480     1.3860 hc         1 HG8       0.039367
     48 H10         -4.0240     0.4950    -1.7360 h1         1 HG8       0.063200
     49 H11         -5.4450     0.7560    -0.7480 h1         1 HG8       0.063200
     50 H12         -2.1660     3.8700     2.3680 h4         1 HG8       0.147000
     51 H13         -1.7100     5.1550    -1.1850 hc         1 HG8       0.040033
     52 H14         -3.1040     5.8990    -0.3820 hc         1 HG8       0.040033
     53 H15         -1.5840     5.6830     0.5010 hc         1 HG8       0.040033
     54 H16         -3.5280     3.1270    -1.6970 ha         1 HG8       0.130000
     55 H17         -1.1930    -4.3290     0.4420 h4         1 HG8       0.024100
     56 H18          0.1310     0.6520    -0.4020 hn         1 HG8       0.526000
     57 H19          2.0540    -2.5100    -0.7790 ha         1 HG8       0.143000
     58 H20          4.5070    -2.5210    -0.7300 ha         1 HG8       0.118000
     59 H21          4.5530     1.7300    -0.0180 ha         1 HG8       0.114000
     60 H22          3.0750     3.2490     1.1390 h1         1 HG8       0.033200
     61 H23          3.1380     3.5460    -0.6210 h1         1 HG8       0.033200
     62 H24          0.7720     4.3670    -0.5720 hc         1 HG8       0.047700
     63 H25          0.6930     4.0590     1.1810 hc         1 HG8       0.047700
     64 H26          1.7880     5.3070     0.5430 hc         1 HG8       0.047700
     65 H27          6.5780     0.6370    -0.1540 hc         1 HG8       0.043700
     66 H28          6.4870    -1.8460    -1.9570 hc         1 HG8       0.050700
     67 H29          6.5020    -0.1700    -2.4960 hc         1 HG8       0.050700
     68 H30          8.7720    -1.2040    -2.6060 h1         1 HG8       0.028950
     69 H31          8.7450     0.1880    -1.5130 h1         1 HG8       0.028950
     70 H33         10.8290    -0.8220    -0.3530 h1         1 HG8       0.029033
     71 H34         10.7100    -2.4910     0.2540 h1         1 HG8       0.029033
     72 H35         10.7330    -2.1850    -1.4950 h1         1 HG8       0.029033
     73 H36          8.7170    -1.9380     1.5810 h1         1 HG8       0.028950
     74 H37          8.7110    -0.2570     1.0260 h1         1 HG8       0.028950
     75 H38          6.4450    -0.9180     1.7700 hc         1 HG8       0.050700
     76 H39          6.4520    -2.3110     0.6940 hc         1 HG8       0.050700
@<TRIPOS>BOND
     1     1     2 2   
     2     2     3 1   
     3     2     5 1   
     4     3     4 1   
     5     3    17 1   
     6     4    39 1   
     7     4    40 1   
     8     4    41 1   
     9     5     6 1   
    10     5     8 1   
    11     5    42 1   
    12     6     7 1   
    13     6    43 1   
    14     6    44 1   
    15     7    45 1   
    16     7    46 1   
    17     7    47 1   
    18     8     9 1   
    19     8    16 1   
    20     9    10 1   
    21     9    48 1   
    22     9    49 1   
    23    10    11 1   
    24    10    15 2   
    25    11    12 1   
    26    12    13 2   
    27    12    50 1   
    28    13    14 1   
    29    13    15 1   
    30    14    51 1   
    31    14    52 1   
    32    14    53 1   
    33    15    54 1   
    34    16    17 ar  
    35    16    18 ar  
    36    17    21 ar  
    37    18    19 ar  
    38    19    20 ar  
    39    19    22 1   
    40    20    21 ar  
    41    21    55 1   
    42    22    23 1   
    43    22    56 1   
    44    23    24 ar  
    45    23    28 ar  
    46    24    25 ar  
    47    24    57 1   
    48    25    26 ar  
    49    25    58 1   
    50    26    27 ar  
    51    26    32 1   
    52    27    28 ar  
    53    27    59 1   
    54    28    29 1   
    55    29    30 1   
    56    30    31 1   
    57    30    60 1   
    58    30    61 1   
    59    31    62 1   
    60    31    63 1   
    61    31    64 1   
    62    32    33 1   
    63    32    38 1   
    64    32    65 1   
    65    33    34 1   
    66    33    66 1   
    67    33    67 1   
    68    34    35 1   
    69    34    68 1   
    70    34    69 1   
    71    35    36 1   
    72    35    37 1   
    73    36    70 1   
    74    36    71 1   
    75    36    72 1   
    76    37    38 1   
    77    37    73 1   
    78    37    74 1   
    79    38    75 1   
    80    38    76 1   
@<TRIPOS>SUBSTRUCTURE
     1 HG8         1 TEMP              0 ****  ****    0 ROOT
