@<TRIPOS>MOLECULE
HG8
   76    80     1     0     0
SMALL
abcg2


@<TRIPOS>ATOM
      1 O1          -5.9760    -3.7590     0.4080 o          1 HG8      -0.549000
      2 C28         -4.9930    -3.0380     0.3870 c          1 HG8       0.560000
      3 N           -3.7280    -3.5110     0.4440 n          1 HG8      -0.183400
      4 C           -3.4820    -4.9360     0.5590 c3         1 HG8       0.080300
      5 C10         -5.1950    -1.5290     0.3740 c6         1 HG8       0.170500
      6 C11         -5.6290    -1.0820     1.7870 c3         1 HG8      -0.093400
      7 C12         -6.5570     0.1250     1.7940 c3         1 HG8      -0.094100
      8 N2          -4.0560    -0.7930    -0.1510 nh         1 HG8      -0.795300
      9 C4          -4.2520     0.5230    -0.7270 c3         1 HG8       0.318100
     10 C5          -3.6320     1.6600     0.0340 cc         1 HG8      -0.211300
     11 S           -3.2720     1.5710     1.7130 ss         1 HG8       0.218000
     12 C9          -2.6660     3.1770     1.7300 cc         1 HG8      -0.248000
     13 C7          -2.7350     3.7650     0.5050 cd         1 HG8      -0.096300
     14 C8          -2.2920     5.1590     0.1990 c3         1 HG8      -0.025800
     15 C6          -3.2900     2.8770    -0.4670 cd         1 HG8      -0.132000
     16 C3          -2.8140    -1.3130    -0.0940 ca         1 HG8       0.405900
     17 C1          -2.6260    -2.6610     0.2900 ca         1 HG8      -0.250000
     18 N3          -1.7920    -0.5520    -0.4220 nb         1 HG8      -0.297000
     19 C13         -0.5640    -1.0600    -0.2910 ca         1 HG8       0.409900
     20 N1          -0.2740    -2.2810     0.1210 nb         1 HG8      -0.247000
     21 C2          -1.3190    -3.0730     0.3860 ca         1 HG8       0.134900
     22 N4           0.4250    -0.1790    -0.6090 nu         1 HG8      -0.919900
     23 C14          1.8070    -0.3210    -0.5190 ca         1 HG8       0.285000
     24 C27          2.4920    -1.5230    -0.6460 ca         1 HG8      -0.098000
     25 C26          3.8790    -1.5620    -0.5710 ca         1 HG8      -0.117000
     26 C19          4.6230    -0.4060    -0.3780 ca         1 HG8      -0.062300
     27 C18          3.9390     0.8050    -0.2620 ca         1 HG8      -0.172000
     28 C15          2.5550     0.8580    -0.3280 ca         1 HG8       0.097100
     29 O            1.8250     1.9870    -0.2250 os         1 HG8      -0.366100
     30 C16          2.4810     3.2340    -0.0560 c3         1 HG8       0.171600
     31 C17          1.4230     4.3110    -0.0220 c3         1 HG8      -0.097100
     32 C20          6.1280    -0.4320    -0.3140 c6         1 HG8      -0.013400
     33 C25          6.7570    -0.8350    -1.6490 c6         1 HG8      -0.069900
     34 C24          8.2740    -0.8550    -1.5480 c6         1 HG8       0.165800
     35 N5           8.7230    -1.7450    -0.4940 n3         1 HG8      -0.715600
     36 C23         10.1660    -1.8290    -0.4570 c3         1 HG8       0.153100
     37 C22          8.1850    -1.3510     0.7950 c6         1 HG8       0.165800
     38 C21          6.6650    -1.3500     0.7860 c6         1 HG8      -0.069900
     39 H1          -4.4250    -5.4690     0.5550 h1         1 HG8       0.052033
     40 H2          -2.8760    -5.2840    -0.2790 h1         1 HG8       0.052033
     41 H3          -2.9580    -5.1620     1.4880 h1         1 HG8       0.052033
     42 H4          -6.0320    -1.3710    -0.3130 h1         1 HG8       0.084700
     43 H5          -6.1550    -1.9080     2.2690 hc         1 HG8       0.061700
     44 H6          -4.7350    -0.8940     2.3870 hc         1 HG8       0.061700
     45 H7          -6.8560     0.3640     2.8140 hc         1 HG8       0.039367
     46 H8          -6.0990     1.0220     1.3800 hc         1 HG8       0.039367
     47 H9          -7.4630    -0.0850     1.2230 hc         1 HG8       0.039367
     48 H10         -3.8550     0.5420    -1.7450 h1         1 HG8       0.063200
     49 H11         -5.3290     0.6750    -0.8130 h1         1 HG8       0.063200
     50 H12         -2.2810     3.6010     2.6460 h4         1 HG8       0.147000
     51 H13         -1.5390     5.1690    -0.5910 hc         1 HG8       0.040033
     52 H14         -3.1270     5.7730    -0.1450 hc         1 HG8       0.040033
     53 H15         -1.8610     5.6430     1.0740 hc         1 HG8       0.040033
     54 H16         -3.4170     3.1400    -1.5100 ha         1 HG8       0.130000
     55 H17         -1.0750    -4.0870     0.6780 h4         1 HG8       0.024100
     56 H18          0.0860     0.7570    -0.7700 hn         1 HG8       0.526000
     57 H19          1.9390    -2.4360    -0.8000 ha         1 HG8       0.143000
     58 H20          4.3770    -2.5190    -0.6740 ha         1 HG8       0.118000
     59 H21          4.5120     1.7120    -0.1080 ha         1 HG8       0.114000
     60 H22          3.0590     3.2320     0.8740 h1         1 HG8       0.033200
     61 H23          3.1810     3.4080    -0.8800 h1         1 HG8       0.033200
     62 H24          0.8530     4.3330    -0.9510 hc         1 HG8       0.047700
     63 H25          0.7260     4.1610     0.8030 hc         1 HG8       0.047700
     64 H26          1.8970     5.2840     0.1050 hc         1 HG8       0.047700
     65 H27          6.4690     0.5850    -0.0840 hc         1 HG8       0.043700
     66 H28          6.3990    -1.8260    -1.9440 hc         1 HG8       0.050700
     67 H29          6.4560    -0.1370    -2.4340 hc         1 HG8       0.050700
     68 H30          8.7050    -1.1900    -2.4950 h1         1 HG8       0.028950
     69 H31          8.6380     0.1770    -1.3850 h1         1 HG8       0.028950
     70 H33         10.6500    -0.8640    -0.2360 h1         1 HG8       0.029033
     71 H34         10.4790    -2.5420     0.3070 h1         1 HG8       0.029033
     72 H35         10.5460    -2.1770    -1.4190 h1         1 HG8       0.029033
     73 H36          8.5490    -2.0510     1.5510 h1         1 HG8       0.028950
     74 H37          8.5480    -0.3490     1.0920 h1         1 HG8       0.028950
     75 H38          6.2950    -1.0280     1.7620 hc         1 HG8       0.050700
     76 H39          6.3070    -2.3720     0.6290 hc         1 HG8       0.050700
@<TRIPOS>BOND
     1     1     2 2   
     2     2     3 1   
     3     2     5 1   
     4     3     4 1   
     5     3    17 1   
     6     4    39 1   
     7     4    40 1   
     8     4    41 1   
     9     5     6 1   
    10     5     8 1   
    11     5    42 1   
    12     6     7 1   
    13     6    43 1   
    14     6    44 1   
    15     7    45 1   
    16     7    46 1   
    17     7    47 1   
    18     8     9 1   
    19     8    16 1   
    20     9    10 1   
    21     9    48 1   
    22     9    49 1   
    23    10    11 1   
    24    10    15 2   
    25    11    12 1   
    26    12    13 2   
    27    12    50 1   
    28    13    14 1   
    29    13    15 1   
    30    14    51 1   
    31    14    52 1   
    32    14    53 1   
    33    15    54 1   
    34    16    17 ar  
    35    16    18 ar  
    36    17    21 ar  
    37    18    19 ar  
    38    19    20 ar  
    39    19    22 1   
    40    20    21 ar  
    41    21    55 1   
    42    22    23 1   
    43    22    56 1   
    44    23    24 ar  
    45    23    28 ar  
    46    24    25 ar  
    47    24    57 1   
    48    25    26 ar  
    49    25    58 1   
    50    26    27 ar  
    51    26    32 1   
    52    27    28 ar  
    53    27    59 1   
    54    28    29 1   
    55    29    30 1   
    56    30    31 1   
    57    30    60 1   
    58    30    61 1   
    59    31    62 1   
    60    31    63 1   
    61    31    64 1   
    62    32    33 1   
    63    32    38 1   
    64    32    65 1   
    65    33    34 1   
    66    33    66 1   
    67    33    67 1   
    68    34    35 1   
    69    34    68 1   
    70    34    69 1   
    71    35    36 1   
    72    35    37 1   
    73    36    70 1   
    74    36    71 1   
    75    36    72 1   
    76    37    38 1   
    77    37    73 1   
    78    37    74 1   
    79    38    75 1   
    80    38    76 1   
@<TRIPOS>SUBSTRUCTURE
     1 HG8         1 TEMP              0 ****  ****    0 ROOT
