@<TRIPOS>MOLECULE
HG9
   60    59     1     0     0
SMALL
abcg2


@<TRIPOS>ATOM
      1 C9          -6.9490    -1.0450    22.8750 c3         1 HG9      -0.074400
      2 C12         -6.5820    -0.7490    21.4260 c3         1 HG9      -0.075400
      3 C15         -5.1910    -1.2430    21.0450 c3         1 HG9      -0.075400
      4 C18         -4.8260    -0.9680    19.5920 c3         1 HG9      -0.073400
      5 C21         -3.4400    -1.4770    19.2180 c3         1 HG9      -0.077400
      6 C24         -3.0960    -1.2540    17.7500 c3         1 HG9      -0.065400
      7 C27         -1.7100    -1.7830    17.4140 c3         1 HG9      -0.151400
      8 C30         -1.3420    -1.6390    15.9530 c          1 HG9       0.610100
      9 N33         -0.0780    -1.9440    15.5870 n          1 HG9      -0.410800
     10 O34         -2.1750    -1.2730    15.1240 o          1 HG9      -0.624100
     11 C35          0.9330    -2.4330    16.5070 c3         1 HG9       0.060000
     12 C36          0.3280    -1.7770    14.1980 c3         1 HG9       0.063000
     13 C37          0.0270    -3.0030    13.3410 c3         1 HG9       0.131300
     14 C40          0.4640    -2.8280    11.8780 c3         1 HG9       0.156300
     15 C41          1.9490    -2.5240    11.7050 c3         1 HG9       0.152300
     16 C42          2.3850    -2.4190    10.2360 c3         1 HG9       0.092300
     17 C43          2.0790    -3.6600     9.4100 c3         1 HG9       0.166600
     18 O44          2.5590    -3.5480     8.0910 oh         1 HG9      -0.715000
     19 O47         -1.3500    -3.3320    13.3500 oh         1 HG9      -0.742000
     20 O49         -0.2410    -1.7790    11.2550 oh         1 HG9      -0.732000
     21 O51          2.6650    -3.5330    12.3770 oh         1 HG9      -0.723000
     22 O53          3.7950    -2.2450    10.1910 oh         1 HG9      -0.743000
     23 C60          1.7860    -1.3030    17.0790 c3         1 HG9       0.134600
     24 O63          2.7500    -1.7810    17.9840 oh         1 HG9      -0.648000
     25 C1          -8.3420    -0.5570    23.2500 c3         1 HG9      -0.088100
     26 H91         -6.8800    -2.1230    23.0520 hc         1 HG9       0.036200
     27 H92         -6.2100    -0.5830    23.5370 hc         1 HG9       0.036200
     28 H121        -7.3240    -1.2090    20.7640 hc         1 HG9       0.037700
     29 H122        -6.6460     0.3300    21.2500 hc         1 HG9       0.037700
     30 H151        -4.4490    -0.7760    21.7010 hc         1 HG9       0.036700
     31 H152        -5.1270    -2.3210    21.2340 hc         1 HG9       0.036700
     32 H181        -4.8830     0.1090    19.3990 hc         1 HG9       0.040200
     33 H182        -5.5720    -1.4340    18.9380 hc         1 HG9       0.040200
     34 H211        -3.3750    -2.5470    19.4460 hc         1 HG9       0.036200
     35 H212        -2.6910    -0.9880    19.8500 hc         1 HG9       0.036200
     36 H241        -3.1540    -0.1870    17.5190 hc         1 HG9       0.056200
     37 H242        -3.8440    -1.7480    17.1250 hc         1 HG9       0.056200
     38 H271        -1.6530    -2.8460    17.6760 hc         1 HG9       0.061200
     39 H272        -0.9640    -1.2870    18.0410 hc         1 HG9       0.061200
     40 H351         1.5700    -3.1380    15.9660 h1         1 HG9       0.060200
     41 H352         0.4740    -3.0000    17.3150 h1         1 HG9       0.060200
     42 H361        -0.1470    -0.8890    13.7780 h1         1 HG9       0.067200
     43 H362         1.4010    -1.5880    14.1910 h1         1 HG9       0.067200
     44 H37          0.5720    -3.8590    13.7550 h1         1 HG9       0.078700
     45 H40          0.2430    -3.7870    11.3870 h1         1 HG9       0.058700
     46 H41          2.1570    -1.5380    12.1540 h1         1 HG9       0.032700
     47 H42          1.8800    -1.5610     9.7800 h1         1 HG9       0.070700
     48 H431         0.9980    -3.7920     9.3400 h1         1 HG9       0.054700
     49 H432         2.4820    -4.5490     9.9130 h1         1 HG9       0.054700
     50 H44          3.4990    -3.3450     8.1440 ho         1 HG9       0.512000
     51 H47         -1.8510    -2.5670    13.6650 ho         1 HG9       0.537000
     52 H49         -1.1750    -2.0100    11.2540 ho         1 HG9       0.525000
     53 H51          3.6000    -3.3950    12.1870 ho         1 HG9       0.522000
     54 H53          3.9990    -1.3210    10.3660 ho         1 HG9       0.510000
     55 H601         1.1490    -0.6080    17.6290 h1         1 HG9       0.048700
     56 H602         2.2410    -0.7330    16.2590 h1         1 HG9       0.048700
     57 H63          3.4020    -2.2910    17.4940 ho         1 HG9       0.442000
     58 H11         -8.5720    -0.7700    24.2950 hc         1 HG9       0.031367
     59 H12         -8.4360     0.5210    23.1060 hc         1 HG9       0.031367
     60 H13         -9.1080    -1.0380    22.6390 hc         1 HG9       0.031367
@<TRIPOS>BOND
     1     1     2 1   
     2     1    25 1   
     3     1    26 1   
     4     1    27 1   
     5     2     3 1   
     6     2    28 1   
     7     2    29 1   
     8     3     4 1   
     9     3    30 1   
    10     3    31 1   
    11     4     5 1   
    12     4    32 1   
    13     4    33 1   
    14     5     6 1   
    15     5    34 1   
    16     5    35 1   
    17     6     7 1   
    18     6    36 1   
    19     6    37 1   
    20     7     8 1   
    21     7    38 1   
    22     7    39 1   
    23     8     9 1   
    24     8    10 2   
    25     9    11 1   
    26     9    12 1   
    27    11    23 1   
    28    11    40 1   
    29    11    41 1   
    30    12    13 1   
    31    12    42 1   
    32    12    43 1   
    33    13    14 1   
    34    13    19 1   
    35    13    44 1   
    36    14    15 1   
    37    14    20 1   
    38    14    45 1   
    39    15    16 1   
    40    15    21 1   
    41    15    46 1   
    42    16    17 1   
    43    16    22 1   
    44    16    47 1   
    45    17    18 1   
    46    17    48 1   
    47    17    49 1   
    48    18    50 1   
    49    19    51 1   
    50    20    52 1   
    51    21    53 1   
    52    22    54 1   
    53    23    24 1   
    54    23    55 1   
    55    23    56 1   
    56    24    57 1   
    57    25    58 1   
    58    25    59 1   
    59    25    60 1   
@<TRIPOS>SUBSTRUCTURE
     1 HG9         1 TEMP              0 ****  ****    0 ROOT
