@<TRIPOS>MOLECULE
HG9
   60    59     1     0     0
SMALL
No Charge or Current Charge


@<TRIPOS>ATOM
      1 C9          -6.9240    -0.8190    23.1320 c3         1 HG9      -0.074400
      2 C12         -6.6590    -0.7270    21.6130 c3         1 HG9      -0.075400
      3 C15         -5.2410    -1.1920    21.2170 c3         1 HG9      -0.075400
      4 C18         -4.9760    -1.1000    19.6990 c3         1 HG9      -0.073400
      5 C21         -3.5570    -1.5660    19.3040 c3         1 HG9      -0.077400
      6 C24         -3.2920    -1.4740    17.7850 c3         1 HG9      -0.065400
      7 C27         -1.8690    -1.9420    17.3940 c3         1 HG9      -0.151400
      8 C30         -1.5310    -1.8560    15.8920 c          1 HG9       0.610100
      9 N33         -0.1890    -1.9980    15.4640 n          1 HG9      -0.410800
     10 O34         -2.4100    -1.6880    15.0540 o          1 HG9      -0.624100
     11 C35          0.8950    -2.4740    16.3640 c3         1 HG9       0.060000
     12 C36          0.1840    -1.7250    14.0490 c3         1 HG9       0.063000
     13 C37         -0.0870    -2.9230    13.0960 c3         1 HG9       0.131300
     14 C40          0.5240    -2.7790    11.6660 c3         1 HG9       0.156300
     15 C41          2.0660    -2.5060    11.6300 c3         1 HG9       0.152300
     16 C42          2.6750    -2.4160    10.1970 c3         1 HG9       0.092300
     17 C43          2.3570    -3.6400     9.2920 c3         1 HG9       0.166600
     18 O44          3.2200    -3.5700     8.1520 oh         1 HG9      -0.715000
     19 O47         -1.5170    -3.0910    12.9640 oh         1 HG9      -0.742000
     20 O49         -0.1950    -1.7480    10.9670 oh         1 HG9      -0.732000
     21 O51          2.7870    -3.5210    12.3440 oh         1 HG9      -0.723000
     22 O53          4.1190    -2.2890    10.3070 oh         1 HG9      -0.743000
     23 C60          1.7460    -1.3280    16.9590 c3         1 HG9       0.134600
     24 O63          2.7450    -1.8560    17.8460 oh         1 HG9      -0.648000
     25 C1          -8.3390    -0.3540    23.5270 c3         1 HG9      -0.088100
     26 H91         -6.7840    -1.8550    23.4630 hc         1 HG9       0.036200
     27 H92         -6.1860    -0.2090    23.6670 hc         1 HG9       0.036200
     28 H121        -7.4000    -1.3360    21.0810 hc         1 HG9       0.037700
     29 H122        -6.8020     0.3110    21.2850 hc         1 HG9       0.037700
     30 H151        -4.5000    -0.5830    21.7500 hc         1 HG9       0.036700
     31 H152        -5.0980    -2.2300    21.5450 hc         1 HG9       0.036700
     32 H181        -5.1190    -0.0630    19.3710 hc         1 HG9       0.040200
     33 H182        -5.7170    -1.7100    19.1660 hc         1 HG9       0.040200
     34 H211        -3.4140    -2.6030    19.6320 hc         1 HG9       0.036200
     35 H212        -2.8170    -0.9560    19.8360 hc         1 HG9       0.036200
     36 H241        -3.4330    -0.4360    17.4560 hc         1 HG9       0.056200
     37 H242        -4.0330    -2.0830    17.2520 hc         1 HG9       0.056200
     38 H271        -1.7010    -2.9780    17.7090 hc         1 HG9       0.061200
     39 H272        -1.1000    -1.4040    17.9590 hc         1 HG9       0.061200
     40 H351         1.5540    -3.1360    15.7870 h1         1 HG9       0.060200
     41 H352         0.4780    -3.0800    17.1770 h1         1 HG9       0.060200
     42 H361        -0.3490    -0.8330    13.6910 h1         1 HG9       0.067200
     43 H362         1.2530    -1.4820    14.0250 h1         1 HG9       0.067200
     44 H37          0.3570    -3.8180    13.5560 h1         1 HG9       0.078700
     45 H40          0.3520    -3.7410    11.1630 h1         1 HG9       0.058700
     46 H41          2.2470    -1.5340    12.1090 h1         1 HG9       0.032700
     47 H42          2.2530    -1.5260     9.7060 h1         1 HG9       0.070700
     48 H431         1.3010    -3.6180     8.9890 h1         1 HG9       0.054700
     49 H432         2.5320    -4.5700     9.8510 h1         1 HG9       0.054700
     50 H44          4.0200    -3.1220     8.5270 ho         1 HG9       0.512000
     51 H47         -1.9270    -2.6070    13.7400 ho         1 HG9       0.537000
     52 H49         -1.1300    -1.8800    11.2610 ho         1 HG9       0.525000
     53 H51          3.6880    -3.4940    11.9350 ho         1 HG9       0.522000
     54 H53          4.3200    -1.3550    10.5620 ho         1 HG9       0.510000
     55 H601         1.0870    -0.6370    17.5010 h1         1 HG9       0.048700
     56 H602         2.2160    -0.7620    16.1430 h1         1 HG9       0.048700
     57 H63          3.4020    -2.3370    17.2950 ho         1 HG9       0.442000
     58 H11         -8.4800    -0.4380    24.6110 hc         1 HG9       0.031367
     59 H12         -8.4980     0.6920    23.2400 hc         1 HG9       0.031367
     60 H13         -9.1010    -0.9690    23.0340 hc         1 HG9       0.031367
@<TRIPOS>BOND
     1     1     2 1   
     2     1    25 1   
     3     1    26 1   
     4     1    27 1   
     5     2     3 1   
     6     2    28 1   
     7     2    29 1   
     8     3     4 1   
     9     3    30 1   
    10     3    31 1   
    11     4     5 1   
    12     4    32 1   
    13     4    33 1   
    14     5     6 1   
    15     5    34 1   
    16     5    35 1   
    17     6     7 1   
    18     6    36 1   
    19     6    37 1   
    20     7     8 1   
    21     7    38 1   
    22     7    39 1   
    23     8     9 1   
    24     8    10 2   
    25     9    11 1   
    26     9    12 1   
    27    11    23 1   
    28    11    40 1   
    29    11    41 1   
    30    12    13 1   
    31    12    42 1   
    32    12    43 1   
    33    13    14 1   
    34    13    19 1   
    35    13    44 1   
    36    14    15 1   
    37    14    20 1   
    38    14    45 1   
    39    15    16 1   
    40    15    21 1   
    41    15    46 1   
    42    16    17 1   
    43    16    22 1   
    44    16    47 1   
    45    17    18 1   
    46    17    48 1   
    47    17    49 1   
    48    18    50 1   
    49    19    51 1   
    50    20    52 1   
    51    21    53 1   
    52    22    54 1   
    53    23    24 1   
    54    23    55 1   
    55    23    56 1   
    56    24    57 1   
    57    25    58 1   
    58    25    59 1   
    59    25    60 1   
@<TRIPOS>SUBSTRUCTURE
     1 HG9         1 TEMP              0 ****  ****    0 ROOT
