@<TRIPOS>MOLECULE
HGA
   20    19     1     0     0
SMALL
No Charge or Current Charge


@<TRIPOS>ATOM
      1 N           41.6400    36.4090    51.3280 n8         1 HGA      -1.024200
      2 CA          40.7760    35.9170    50.1900 c3         1 HGA       0.020500
      3 CB          41.5480    36.0460    48.8420 c3         1 HGA      -0.023400
      4 CG          42.8030    35.1410    48.7170 c3         1 HGA      -0.143400
      5 CD          43.5210    35.3630    47.3820 c          1 HGA       0.590100
      6 OE1         43.0790    34.9370    46.3220 o          1 HGA      -0.590100
      7 NE2         44.7230    36.0590    47.4650 ns         1 HGA      -0.391400
      8 OZ2         45.6410    36.1090    46.3450 oh         1 HGA      -0.459100
      9 C           40.0640    34.5000    50.3860 c          1 HGA       0.703000
     10 O           39.8040    34.1380    51.5270 o          1 HGA      -0.729000
     11 OXT         39.8110    33.8130    49.4050 o          1 HGA      -0.729000
     12 HN1         41.1040    36.3300    52.2010 hn         1 HGA       0.389500
     13 HN2         41.8000    37.4190    51.2250 hn         1 HGA       0.389500
     14 HA          39.9430    36.6310    50.1360 h1         1 HGA       0.009700
     15 HB1         40.8630    35.8320    48.0120 hc         1 HGA       0.032200
     16 HB2         41.8560    37.0910    48.7120 hc         1 HGA       0.032200
     17 HG1         43.4860    35.3670    49.5440 hc         1 HGA       0.079700
     18 HG2         42.4920    34.0930    48.7720 hc         1 HGA       0.079700
     19 HNE         45.1200    36.2620    48.3820 hn         1 HGA       0.326500
     20 HOZ         45.8460    37.0700    46.2570 ho         1 HGA       0.438000
@<TRIPOS>BOND
     1     1     2 1   
     2     1    12 1   
     3     1    13 1   
     4     2     3 1   
     5     2     9 1   
     6     2    14 1   
     7     3     4 1   
     8     3    15 1   
     9     3    16 1   
    10     4     5 1   
    11     4    17 1   
    12     4    18 1   
    13     5     6 2   
    14     5     7 1   
    15     7     8 1   
    16     7    19 1   
    17     8    20 1   
    18     9    10 1   
    19     9    11 1   
@<TRIPOS>SUBSTRUCTURE
     1 HGA         1 TEMP              0 ****  ****    0 ROOT
