@<TRIPOS>MOLECULE
HGA
   20    19     1     0     0
SMALL
abcg2


@<TRIPOS>ATOM
      1 N           41.5360    36.5350    51.2270 n8         1 HGA      -1.024200
      2 CA          40.7460    36.0020    50.1100 c3         1 HGA       0.020500
      3 CB          41.5060    36.1360    48.7850 c3         1 HGA      -0.023400
      4 CG          42.7630    35.2640    48.7260 c3         1 HGA      -0.143400
      5 CD          43.5200    35.4590    47.4320 c          1 HGA       0.590100
      6 OE1         43.0210    35.2820    46.3260 o          1 HGA      -0.590100
      7 NE2         44.7920    35.9030    47.6040 ns         1 HGA      -0.391400
      8 OZ2         45.6710    35.9160    46.5260 oh         1 HGA      -0.459100
      9 C           40.3030    34.5390    50.3830 c          1 HGA       0.703000
     10 O           40.5110    34.0710    51.5310 o          1 HGA      -0.729000
     11 OXT         39.7390    33.9440    49.4300 o          1 HGA      -0.729000
     12 HN1         41.2710    36.0190    52.0590 hn         1 HGA       0.389500
     13 HN2         41.3180    37.5120    51.3800 hn         1 HGA       0.389500
     14 HA          39.8070    36.5600    49.9910 h1         1 HGA       0.009700
     15 HB1         40.8420    35.8710    47.9630 hc         1 HGA       0.032200
     16 HB2         41.7880    37.1850    48.6530 hc         1 HGA       0.032200
     17 HG1         43.3990    35.4690    49.5870 hc         1 HGA       0.079700
     18 HG2         42.4770    34.2090    48.7640 hc         1 HGA       0.079700
     19 HNE         45.2620    35.8290    48.4940 hn         1 HGA       0.326500
     20 HOZ         45.6490    36.8210    46.1810 ho         1 HGA       0.438000
@<TRIPOS>BOND
     1     1     2 1   
     2     1    12 1   
     3     1    13 1   
     4     2     3 1   
     5     2     9 1   
     6     2    14 1   
     7     3     4 1   
     8     3    15 1   
     9     3    16 1   
    10     4     5 1   
    11     4    17 1   
    12     4    18 1   
    13     5     6 2   
    14     5     7 1   
    15     7     8 1   
    16     7    19 1   
    17     8    20 1   
    18     9    10 1   
    19     9    11 1   
@<TRIPOS>SUBSTRUCTURE
     1 HGA         1 TEMP              0 ****  ****    0 ROOT
