@<TRIPOS>MOLECULE
HGE
   34    35     1     0     0
SMALL
No Charge or Current Charge


@<TRIPOS>ATOM
      1 N1          -3.2180    -1.3470    -2.3620 nb         1 HGE      -0.606000
      2 C4           0.6290     1.5310     1.6360 c6         1 HGE      -0.077900
      3 C5          -0.2090     0.3190     1.1520 c6         1 HGE       0.217300
      4 C6           0.3470     0.8660    -1.2200 c6         1 HGE       0.217300
      5 C7           1.1900     2.0800    -0.7490 c6         1 HGE      -0.077900
      6 C8          -1.9030    -0.1280    -0.6720 ca         1 HGE       0.581900
      7 C10         -4.2140    -1.3400    -1.4360 ca         1 HGE       0.213900
      8 C2           2.9910     0.9500     0.7360 c          1 HGE       0.592100
      9 O            2.7030    -0.3360     0.3630 os         1 HGE      -0.454100
     10 C1           3.7600    -1.3080     0.3870 c3         1 HGE       0.166600
     11 C            3.1570    -2.6450    -0.0730 c3         1 HGE      -0.097100
     12 C3           1.7950     1.9330     0.6810 c6         1 HGE      -0.116700
     13 N           -0.7190     0.5240    -0.2370 nh         1 HGE      -0.778300
     14 N2          -2.9080    -0.1310     0.2390 nb         1 HGE      -0.732000
     15 C11         -4.0600    -0.7410    -0.1560 ca         1 HGE       0.344900
     16 C9          -2.0650    -0.7350    -1.9660 ca         1 HGE       0.223900
     17 H1          -0.0460     2.3890     1.7540 hc         1 HGE       0.062700
     18 H2           1.0250     1.3220     2.6390 hc         1 HGE       0.062700
     19 H3           0.3930    -0.5990     1.2010 h1         1 HGE       0.056700
     20 H4          -1.0330     0.1860     1.8680 h1         1 HGE       0.056700
     21 H5          -0.0990     1.1350    -2.1890 h1         1 HGE       0.056700
     22 H6           0.9960    -0.0020    -1.3980 h1         1 HGE       0.056700
     23 H7           1.9920     2.2700    -1.4750 hc         1 HGE       0.062700
     24 H8           0.5490     2.9720    -0.7720 hc         1 HGE       0.062700
     25 H9          -5.1510    -1.8190    -1.7170 h4         1 HGE       0.030100
     26 H10          4.5740    -1.0200    -0.2920 h1         1 HGE       0.049200
     27 H11          4.1700    -1.4190     1.4000 h1         1 HGE       0.049200
     28 H12          2.7540    -2.5570    -1.0880 hc         1 HGE       0.047033
     29 H13          3.9250    -3.4270    -0.0730 hc         1 HGE       0.047033
     30 H14          2.3490    -2.9550     0.6010 hc         1 HGE       0.047033
     31 H15          2.1880     2.9080     0.9980 hc         1 HGE       0.077700
     32 H16         -4.8780    -0.7520     0.5640 h4         1 HGE       0.023100
     33 H17         -1.2550    -0.7390    -2.6940 h4         1 HGE       0.024100
     34 O1           4.1050     1.3150     1.0860 o          1 HGE      -0.489000
@<TRIPOS>BOND
     1     1     7 ar  
     2     1    16 ar  
     3     2     3 1   
     4     2    12 1   
     5     2    17 1   
     6     2    18 1   
     7     3    13 1   
     8     3    19 1   
     9     3    20 1   
    10     4     5 1   
    11     4    13 1   
    12     4    21 1   
    13     4    22 1   
    14     5    12 1   
    15     5    23 1   
    16     5    24 1   
    17     6    13 1   
    18     6    14 ar  
    19     6    16 ar  
    20     7    15 ar  
    21     7    25 1   
    22     8     9 1   
    23     8    12 1   
    24     8    34 2   
    25     9    10 1   
    26    10    11 1   
    27    10    26 1   
    28    10    27 1   
    29    11    28 1   
    30    11    29 1   
    31    11    30 1   
    32    12    31 1   
    33    14    15 ar  
    34    15    32 1   
    35    16    33 1   
@<TRIPOS>SUBSTRUCTURE
     1 HGE         1 TEMP              0 ****  ****    0 ROOT
