@<TRIPOS>MOLECULE
HGE
   34    35     1     0     0
SMALL
bcc


@<TRIPOS>ATOM
      1 N1          -4.1740    -1.0930    -1.1440 nb         1 HGE      -0.606000
      2 C4           0.6480     1.9140     0.8580 c6         1 HGE      -0.077900
      3 C5          -0.4230     0.8790     1.1690 c6         1 HGE       0.217300
      4 C6          -0.0380    -0.2110    -0.9860 c6         1 HGE       0.217300
      5 C7           1.0260     0.8190    -1.3360 c6         1 HGE      -0.077900
      6 C8          -2.3190    -0.0300    -0.0760 ca         1 HGE       0.581900
      7 C10         -4.9460    -0.6530    -0.1500 ca         1 HGE       0.213900
      8 C2           2.6380     0.3900     0.5920 c          1 HGE       0.641100
      9 O            3.3630    -0.2970    -0.2770 os         1 HGE      -0.430900
     10 C1           4.3200    -1.2420     0.2290 c3         1 HGE       0.143400
     11 C            4.9950    -1.8910    -0.9540 c3         1 HGE      -0.097100
     12 C3           1.7140     1.3810    -0.0920 c6         1 HGE      -0.116700
     13 N           -1.0060     0.3280    -0.0470 nh         1 HGE      -0.778300
     14 N2          -3.1020     0.3820     0.9210 nb         1 HGE      -0.732000
     15 C11         -4.3910     0.0800     0.8790 ca         1 HGE       0.344900
     16 C9          -2.8930    -0.8020    -1.1200 ca         1 HGE       0.223900
     17 H1           0.1790     2.7840     0.3910 hc         1 HGE       0.062700
     18 H2           1.0870     2.2570     1.7950 hc         1 HGE       0.062700
     19 H3          -0.0020     0.0660     1.7740 h1         1 HGE       0.056700
     20 H4          -1.2100     1.3380     1.7590 h1         1 HGE       0.056700
     21 H5          -0.5270    -0.5050    -1.9110 h1         1 HGE       0.056700
     22 H6           0.4250    -1.1180    -0.5740 h1         1 HGE       0.056700
     23 H7           1.7390     0.3700    -2.0260 hc         1 HGE       0.062700
     24 H8           0.5520     1.6470    -1.8670 hc         1 HGE       0.062700
     25 H9          -6.0000    -0.8970    -0.1750 h4         1 HGE       0.030100
     26 H10          5.0460    -0.7260     0.8600 h1         1 HGE       0.049200
     27 H11          3.8100    -1.9860     0.8440 h1         1 HGE       0.049200
     28 H12          5.5220    -1.1610    -1.5670 hc         1 HGE       0.047033
     29 H13          5.7260    -2.6150    -0.5940 hc         1 HGE       0.047033
     30 H14          4.2800    -2.4220    -1.5820 hc         1 HGE       0.047033
     31 H15          2.3590     2.2120    -0.4030 hc         1 HGE       0.077700
     32 H16         -5.0040     0.4330     1.7010 h4         1 HGE       0.023100
     33 H17         -2.3040    -1.1900    -1.9400 h4         1 HGE       0.024100
     34 O1           2.7430     0.2610     1.7870 o          1 HGE      -0.538000
@<TRIPOS>BOND
     1     1     7 ar  
     2     1    16 ar  
     3     2     3 1   
     4     2    12 1   
     5     2    17 1   
     6     2    18 1   
     7     3    13 1   
     8     3    19 1   
     9     3    20 1   
    10     4     5 1   
    11     4    13 1   
    12     4    21 1   
    13     4    22 1   
    14     5    12 1   
    15     5    23 1   
    16     5    24 1   
    17     6    13 1   
    18     6    14 ar  
    19     6    16 ar  
    20     7    15 ar  
    21     7    25 1   
    22     8     9 1   
    23     8    12 1   
    24     8    34 2   
    25     9    10 1   
    26    10    11 1   
    27    10    26 1   
    28    10    27 1   
    29    11    28 1   
    30    11    29 1   
    31    11    30 1   
    32    12    31 1   
    33    14    15 ar  
    34    15    32 1   
    35    16    33 1   
@<TRIPOS>SUBSTRUCTURE
     1 HGE         1 TEMP              0 ****  ****    0 ROOT
