@<TRIPOS>MOLECULE
HGF
   49    53     1     0     0
SMALL
bcc


@<TRIPOS>ATOM
      1 N1          -3.3120     1.2120     0.1280 na         1 HGF      -0.126400
      2 C3          -2.8290    -0.0530    -0.0860 ca         1 HGF      -0.078200
      3 C4          -1.4980    -0.4850    -0.2650 ca         1 HGF       0.005000
      4 C5          -1.3130    -1.8750    -0.4590 ca         1 HGF      -0.146300
      5 C6           0.0140    -2.3210    -0.6180 ca         1 HGF       0.435200
      6 N8           1.0610    -1.5410    -0.6090 nb         1 HGF      -0.668000
      7 C9           0.8840    -0.2110    -0.4380 cp         1 HGF       0.463800
      8 C10         -0.3620     0.3430    -0.2550 ca         1 HGF      -0.225300
      9 C12          2.1100     0.6090    -0.4370 cp         1 HGF      -0.221800
     10 C13          2.0880     1.9720    -0.7490 ca         1 HGF       0.371200
     11 N15          3.1690     2.7290    -0.7490 nb         1 HGF      -0.644000
     12 C16          4.3430     2.1900    -0.4380 ca         1 HGF       0.319200
     13 C18          4.4790     0.8390    -0.1190 ca         1 HGF       0.026800
     14 C19          3.3380     0.0430    -0.1300 ca         1 HGF      -0.095000
     15 O21          5.6350     0.2410     0.2060 os         1 HGF      -0.302900
     16 C22          6.8210     1.0210     0.2440 c3         1 HGF       0.139400
     17 C25          7.9530     0.1410     0.7030 c3         1 HGF       0.134400
     18 O28          8.1870    -0.8670    -0.2430 os         1 HGF      -0.393600
     19 C29          9.2250    -1.7310     0.1420 c3         1 HGF       0.121700
     20 C33         -2.4180    -2.7700    -0.4790 ca         1 HGF      -0.133000
     21 C35         -3.6950    -2.3190    -0.3110 ca         1 HGF      -0.062000
     22 C37         -3.9140    -0.9350    -0.1100 ca         1 HGF      -0.032800
     23 C38         -5.0770    -0.1360     0.0920 cc         1 HGF      -0.211400
     24 C39         -4.6560     1.1670     0.2340 cd         1 HGF      -0.042300
     25 C40         -5.5800     2.2910     0.5210 c6         1 HGF      -0.034200
     26 C43         -6.9510     1.9080    -0.0230 c6         1 HGF       0.115000
     27 N46         -7.3190     0.5520     0.3560 ns         1 HGF      -0.576900
     28 C48         -6.4800    -0.5070     0.2380 c          1 HGF       0.746700
     29 O49         -6.8650    -1.6700     0.2920 o          1 HGF      -0.635500
     30 H6           0.1960    -3.3830    -0.7590 h4         1 HGF       0.023100
     31 H10         -0.4700     1.4060    -0.0850 ha         1 HGF       0.132000
     32 H13          1.1630     2.4620    -1.0310 h4         1 HGF       0.015100
     33 H16          5.1940     2.8600    -0.4510 h4         1 HGF       0.020100
     34 H19          3.4140    -1.0100     0.1090 ha         1 HGF       0.172000
     35 H22          7.0380     1.4430    -0.7430 h1         1 HGF       0.044700
     36 H22A         6.7190     1.8510     0.9510 h1         1 HGF       0.044700
     37 H25          8.8380     0.7790     0.8360 h1         1 HGF       0.033200
     38 H25A         7.7170    -0.2840     1.6890 h1         1 HGF       0.033200
     39 H29         10.1790    -1.2030     0.2590 h1         1 HGF       0.030367
     40 H29A         9.0060    -2.2410     1.0880 h1         1 HGF       0.030367
     41 H29B         9.3420    -2.4840    -0.6360 h1         1 HGF       0.030367
     42 H33         -2.2270    -3.8250    -0.6290 ha         1 HGF       0.138000
     43 H35         -4.5300    -3.0040    -0.3260 ha         1 HGF       0.161000
     44 H40         -5.6230     2.4630     1.6010 hc         1 HGF       0.065700
     45 H40A        -5.2490     3.2220     0.0580 hc         1 HGF       0.065700
     46 H43         -7.7090     2.5830     0.3680 h1         1 HGF       0.045700
     47 H43A        -6.9470     2.0140    -1.1130 h1         1 HGF       0.045700
     48 HN46        -8.3050     0.3380     0.3760 hn         1 HGF       0.315500
     49 HN1         -2.7600     2.0530     0.1930 hn         1 HGF       0.303700
@<TRIPOS>BOND
     1     1     2 1   
     2     1    24 1   
     3     1    49 1   
     4     2     3 ar  
     5     2    22 ar  
     6     3     4 ar  
     7     3     8 ar  
     8     4     5 ar  
     9     4    20 ar  
    10     5     6 ar  
    11     5    30 1   
    12     6     7 ar  
    13     7     8 ar  
    14     7     9 1   
    15     8    31 1   
    16     9    10 ar  
    17     9    14 ar  
    18    10    11 ar  
    19    10    32 1   
    20    11    12 ar  
    21    12    13 ar  
    22    12    33 1   
    23    13    14 ar  
    24    13    15 1   
    25    14    34 1   
    26    15    16 1   
    27    16    17 1   
    28    16    35 1   
    29    16    36 1   
    30    17    18 1   
    31    17    37 1   
    32    17    38 1   
    33    18    19 1   
    34    19    39 1   
    35    19    40 1   
    36    19    41 1   
    37    20    21 ar  
    38    20    42 1   
    39    21    22 ar  
    40    21    43 1   
    41    22    23 1   
    42    23    24 2   
    43    23    28 1   
    44    24    25 1   
    45    25    26 1   
    46    25    44 1   
    47    25    45 1   
    48    26    27 1   
    49    26    46 1   
    50    26    47 1   
    51    27    28 1   
    52    27    48 1   
    53    28    29 2   
@<TRIPOS>SUBSTRUCTURE
     1 HGF         1 TEMP              0 ****  ****    0 ROOT
