@<TRIPOS>MOLECULE
HGF
   49    53     1     0     0
SMALL
No Charge or Current Charge


@<TRIPOS>ATOM
      1 N1          -3.3190     1.2700     0.0540 na         1 HGF      -0.176700
      2 C3          -2.8870    -0.0480    -0.0800 ca         1 HGF      -0.078200
      3 C4          -1.5700    -0.5300    -0.1890 ca         1 HGF       0.005000
      4 C5          -1.3740    -1.9220    -0.3120 ca         1 HGF      -0.081000
      5 C6          -0.0550    -2.4040    -0.4130 ca         1 HGF       0.369900
      6 N8           1.0300    -1.5940    -0.4000 nb         1 HGF      -0.668000
      7 C9           0.8570    -0.2560    -0.2930 cp         1 HGF       0.398500
      8 C10         -0.4400     0.3080    -0.1770 ca         1 HGF      -0.142000
      9 C12          2.1070     0.5760    -0.2880 cp         1 HGF      -0.156500
     10 C13          2.0710     1.9610    -0.5990 ca         1 HGF       0.305900
     11 N15          3.1610     2.7630    -0.6150 nb         1 HGF      -0.644000
     12 C16          4.3600     2.2100    -0.3150 ca         1 HGF       0.253900
     13 C18          4.5210     0.8390     0.0060 ca         1 HGF       0.092100
     14 C19          3.3810     0.0210     0.0160 ca         1 HGF      -0.077000
     15 O21          5.7440     0.2700     0.3110 os         1 HGF      -0.326100
     16 C22          6.9610     1.0450     0.3230 c3         1 HGF       0.162600
     17 C25          8.1370     0.1150     0.6970 c3         1 HGF       0.157600
     18 O28          8.3910    -0.7840    -0.4020 os         1 HGF      -0.440000
     19 C29          9.4650    -1.7120    -0.1770 c3         1 HGF       0.144900
     20 C33         -2.4820    -2.8060    -0.3280 ca         1 HGF      -0.115000
     21 C35         -3.7930    -2.2980    -0.2200 ca         1 HGF      -0.044000
     22 C37         -3.9540    -0.9100    -0.0960 ca         1 HGF      -0.032800
     23 C38         -5.1370    -0.1080     0.0270 cc         1 HGF      -0.211400
     24 C39         -4.7280     1.2090     0.1240 cd         1 HGF      -0.042300
     25 C40         -5.6940     2.3380     0.3690 c6         1 HGF      -0.034200
     26 C43         -7.1140     1.9540    -0.1160 c6         1 HGF       0.115000
     27 N46         -7.4500     0.5290     0.0940 ns         1 HGF      -0.509900
     28 C48         -6.5560    -0.5200     0.0930 c          1 HGF       0.604200
     29 O49         -6.9450    -1.6760     0.1300 o          1 HGF      -0.560000
     30 H6           0.1420    -3.4710    -0.5060 h4         1 HGF       0.023100
     31 H10         -0.5630     1.3790    -0.0660 ha         1 HGF       0.114000
     32 H13          1.1370     2.4520    -0.8650 h4         1 HGF       0.015100
     33 H16          5.2080     2.8920    -0.3380 h4         1 HGF       0.020100
     34 H19          3.4880    -1.0330     0.2630 ha         1 HGF       0.154000
     35 H22          7.1510     1.4970    -0.6590 h1         1 HGF       0.044700
     36 H22A         6.8940     1.8480     1.0680 h1         1 HGF       0.044700
     37 H25          9.0240     0.7290     0.9000 h1         1 HGF       0.033200
     38 H25A         7.8880    -0.4400     1.6110 h1         1 HGF       0.033200
     39 H29         10.4090    -1.1810     0.0030 h1         1 HGF       0.030367
     40 H29A         9.2540    -2.3500     0.6910 h1         1 HGF       0.030367
     41 H29B         9.5990    -2.3600    -1.0520 h1         1 HGF       0.030367
     42 H33         -2.3270    -3.8780    -0.4240 ha         1 HGF       0.120000
     43 H35         -4.6510    -2.9660    -0.2320 ha         1 HGF       0.143000
     44 H40         -5.7300     2.5560     1.4440 hc         1 HGF       0.065700
     45 H40A        -5.3660     3.2620    -0.1260 hc         1 HGF       0.065700
     46 H43         -7.8650     2.5820     0.3840 h1         1 HGF       0.045700
     47 H43A        -7.1850     2.1500    -1.1960 h1         1 HGF       0.045700
     48 HN46        -8.4280     0.2700     0.1490 hn         1 HGF       0.315500
     49 HN1         -2.7440     2.1020     0.1230 hn         1 HGF       0.354000
@<TRIPOS>BOND
     1     1     2 1   
     2     1    24 1   
     3     1    49 1   
     4     2     3 ar  
     5     2    22 ar  
     6     3     4 ar  
     7     3     8 ar  
     8     4     5 ar  
     9     4    20 ar  
    10     5     6 ar  
    11     5    30 1   
    12     6     7 ar  
    13     7     8 ar  
    14     7     9 1   
    15     8    31 1   
    16     9    10 ar  
    17     9    14 ar  
    18    10    11 ar  
    19    10    32 1   
    20    11    12 ar  
    21    12    13 ar  
    22    12    33 1   
    23    13    14 ar  
    24    13    15 1   
    25    14    34 1   
    26    15    16 1   
    27    16    17 1   
    28    16    35 1   
    29    16    36 1   
    30    17    18 1   
    31    17    37 1   
    32    17    38 1   
    33    18    19 1   
    34    19    39 1   
    35    19    40 1   
    36    19    41 1   
    37    20    21 ar  
    38    20    42 1   
    39    21    22 ar  
    40    21    43 1   
    41    22    23 1   
    42    23    24 2   
    43    23    28 1   
    44    24    25 1   
    45    25    26 1   
    46    25    44 1   
    47    25    45 1   
    48    26    27 1   
    49    26    46 1   
    50    26    47 1   
    51    27    28 1   
    52    27    48 1   
    53    28    29 2   
@<TRIPOS>SUBSTRUCTURE
     1 HGF         1 TEMP              0 ****  ****    0 ROOT
