@<TRIPOS>MOLECULE
HGH
   31    33     1     0     0
SMALL
No Charge or Current Charge


@<TRIPOS>ATOM
      1 C4          -0.7480     0.9090    -1.3290 ca         1 HGH      -0.141000
      2 C5          -1.9320     1.5760    -1.6830 ca         1 HGH      -0.116000
      3 C6          -3.1100     1.3560    -0.9490 ca         1 HGH      -0.123000
      4 C11          2.8080    -0.8080     0.0130 ca         1 HGH      -0.099600
      5 C7          -3.1160     0.4630     0.1410 ca         1 HGH       0.014700
      6 C8          -4.3960     0.2210     0.9350 c3         1 HGH      -0.194100
      7 C9          -5.1300    -0.9990     0.3620 c          1 HGH       0.725000
      8 C10         -1.9250    -0.2040     0.4910 ca         1 HGH      -0.076000
      9 C12          4.2760    -2.3370    -0.3960 cc         1 HGH       0.366700
     10 C13          4.0220    -0.1860     0.1400 ca         1 HGH       0.150500
     11 N2           1.7370     1.2650     0.5590 nb         1 HGH      -0.325000
     12 C3          -0.7420     0.0270    -0.2320 ca         1 HGH       0.083100
     13 N3           2.9450    -2.1610    -0.3240 nd         1 HGH      -0.494100
     14 C1           2.9810     1.7560     0.6530 ca         1 HGH       0.422900
     15 C2           1.6360    -0.0430     0.2230 ca         1 HGH       0.463300
     16 O1           0.4010    -0.6530     0.1220 os         1 HGH      -0.327400
     17 O2          -4.8180    -2.1040     0.7790 o          1 HGH      -0.723000
     18 O3          -5.9050    -0.8210    -0.5660 o          1 HGH      -0.723000
     19 N4           4.9450    -1.1480    -0.1180 na         1 HGH      -0.426300
     20 N5           4.1440     1.1110     0.4620 nb         1 HGH      -0.300000
     21 H1           0.1580     1.0750    -1.9070 ha         1 HGH       0.103000
     22 H2          -1.9380     2.2610    -2.5290 ha         1 HGH       0.092000
     23 H3          -4.0230     1.8750    -1.2330 ha         1 HGH       0.107000
     24 H4          -4.0980     0.0290     1.9730 hc         1 HGH       0.034200
     25 H5          -5.0180     1.1180     0.8310 hc         1 HGH       0.034200
     26 H6          -1.9150    -0.8990     1.3250 ha         1 HGH       0.134000
     27 H7           4.7930    -3.2590    -0.6340 h5         1 HGH       0.057800
     28 H8           2.2380     3.6360     0.9140 hn         1 HGH       0.487000
     29 H9           3.9660     3.5330     0.8460 hn         1 HGH       0.487000
     30 H12          5.9490    -1.0280    -0.1100 hn         1 HGH       0.357000
     31 N1           3.0750     3.0630     0.9810 nv         1 HGH      -1.050900
@<TRIPOS>BOND
     1     1     2 ar  
     2     1    12 ar  
     3     1    21 1   
     4     2     3 ar  
     5     2    22 1   
     6     3     5 ar  
     7     3    23 1   
     8     4    10 ar  
     9     4    13 1   
    10     4    15 ar  
    11     5     6 1   
    12     5     8 ar  
    13     6     7 1   
    14     6    24 1   
    15     6    25 1   
    16     7    17 1   
    17     7    18 1   
    18     8    12 ar  
    19     8    26 1   
    20     9    13 2   
    21     9    19 1   
    22     9    27 1   
    23    10    19 1   
    24    10    20 ar  
    25    11    14 ar  
    26    11    15 ar  
    27    12    16 1   
    28    14    20 ar  
    29    14    31 1   
    30    15    16 1   
    31    19    30 1   
    32    28    31 1   
    33    29    31 1   
@<TRIPOS>SUBSTRUCTURE
     1 HGH         1 TEMP              0 ****  ****    0 ROOT
