@<TRIPOS>MOLECULE
HGH
   31    33     1     0     0
SMALL
abcg2


@<TRIPOS>ATOM
      1 C4          -0.8510     0.8830    -1.9210 ca         1 HGH      -0.141000
      2 C5          -2.0440     1.5780    -2.0460 ca         1 HGH      -0.116000
      3 C6          -3.0480     1.4320    -1.0970 ca         1 HGH      -0.123000
      4 C11          2.7270    -0.9180    -0.1380 ca         1 HGH      -0.099600
      5 C7          -2.8860     0.5840    -0.0050 ca         1 HGH       0.014700
      6 C8          -3.9760     0.4040     1.0020 c3         1 HGH      -0.194100
      7 C9          -4.7760    -0.9180     0.8550 c          1 HGH       0.725000
      8 C10         -1.6850    -0.1130     0.1180 ca         1 HGH      -0.076000
      9 C12          4.3190    -2.2980    -0.1950 cc         1 HGH       0.366700
     10 C13          3.8200    -0.2540     0.4140 ca         1 HGH       0.150500
     11 N2           1.5380     1.0740     0.2470 nb         1 HGH      -0.325000
     12 C3          -0.6920     0.0460    -0.8290 ca         1 HGH       0.083100
     13 N3           3.0640    -2.1960    -0.5120 nd         1 HGH      -0.494100
     14 C1           2.6680     1.6010     0.7600 ca         1 HGH       0.422900
     15 C2           1.5590    -0.1570    -0.1970 ca         1 HGH       0.463300
     16 O1           0.4620    -0.7120    -0.7140 os         1 HGH      -0.327400
     17 O2          -4.2370    -1.8490     0.2310 o          1 HGH      -0.723000
     18 O3          -5.8890    -0.9320     1.4150 o          1 HGH      -0.723000
     19 N4           4.8290    -1.1600     0.3670 na         1 HGH      -0.426300
     20 N5           3.8450     0.9910     0.8720 nb         1 HGH      -0.300000
     21 H1          -0.0640     0.9900    -2.6550 ha         1 HGH       0.103000
     22 H2          -2.1900     2.2410    -2.8900 ha         1 HGH       0.092000
     23 H3          -3.9730     1.9860    -1.2090 ha         1 HGH       0.107000
     24 H4          -3.5490     0.4050     2.0110 hc         1 HGH       0.034200
     25 H5          -4.6650     1.2500     0.9670 hc         1 HGH       0.034200
     26 H6          -1.5230    -0.7780     0.9570 ha         1 HGH       0.134000
     27 H7           4.9340    -3.1720    -0.3420 h5         1 HGH       0.057800
     28 H8           1.7810     3.4140     0.9400 hn         1 HGH       0.487000
     29 H9           3.4190     3.3660     1.4140 hn         1 HGH       0.487000
     30 H12          5.7760    -1.0270     0.6870 hn         1 HGH       0.357000
     31 N1           2.5680     2.8630     1.2340 nv         1 HGH      -1.050900
@<TRIPOS>BOND
     1     1     2 ar  
     2     1    12 ar  
     3     1    21 1   
     4     2     3 ar  
     5     2    22 1   
     6     3     5 ar  
     7     3    23 1   
     8     4    10 ar  
     9     4    13 1   
    10     4    15 ar  
    11     5     6 1   
    12     5     8 ar  
    13     6     7 1   
    14     6    24 1   
    15     6    25 1   
    16     7    17 1   
    17     7    18 1   
    18     8    12 ar  
    19     8    26 1   
    20     9    13 2   
    21     9    19 1   
    22     9    27 1   
    23    10    19 1   
    24    10    20 ar  
    25    11    14 ar  
    26    11    15 ar  
    27    12    16 1   
    28    14    20 ar  
    29    14    31 1   
    30    15    16 1   
    31    19    30 1   
    32    28    31 1   
    33    29    31 1   
@<TRIPOS>SUBSTRUCTURE
     1 HGH         1 TEMP              0 ****  ****    0 ROOT
