@<TRIPOS>MOLECULE
HGK
   28    29     1     0     0
SMALL
No Charge or Current Charge


@<TRIPOS>ATOM
      1 C4          -1.6490    -0.8950    -0.1120 ca         1 HGK      -0.100500
      2 C5          -0.3820    -0.3770    -0.4330 ca         1 HGK      -0.117000
      3 C6          -0.0030     0.8970     0.0360 ca         1 HGK       0.018100
      4 C11          2.6350    -0.3460     0.7130 c6         1 HGK      -0.232200
      5 C7           2.3580     0.6810    -0.3660 c2         1 HGK       0.210900
      6 C8           3.2500     0.8250    -1.3620 ce         1 HGK      -0.488600
      7 C9           4.4810     0.0380    -1.3910 ce         1 HGK       0.583500
      8 C10          4.1430    -0.4890     0.8320 c          1 HGK       0.703500
      9 C12         -0.9060     1.6560     0.7980 ca         1 HGK      -0.117000
     10 C13         -2.1720     1.1350     1.1180 ca         1 HGK      -0.100500
     11 N1           4.7970    -0.7280    -0.3850 nf         1 HGK      -0.696100
     12 C3          -2.5500    -0.1460     0.6690 ca         1 HGK       0.024700
     13 O1          -5.0330    -1.0300    -1.0490 o          1 HGK      -0.718500
     14 C1          -4.9300    -0.3100    -0.0670 c          1 HGK       0.726000
     15 O2          -5.4950     0.7680     0.0440 o          1 HGK      -0.718500
     16 C2          -3.9230    -0.7110     1.0190 c3         1 HGK      -0.199100
     17 O3           1.2250     1.4430    -0.2730 os         1 HGK      -0.227200
     18 O4           4.7690    -0.1890     1.8360 o          1 HGK      -0.529100
     19 H1          -1.9340    -1.8790    -0.4770 ha         1 HGK       0.121000
     20 H2           0.2920    -0.9610    -1.0550 ha         1 HGK       0.109500
     21 H3           2.1930    -0.0750     1.6780 hc         1 HGK       0.110200
     22 H4           2.2430    -1.2990     0.3400 hc         1 HGK       0.110200
     23 H5           3.0980     1.5410    -2.1660 ha         1 HGK       0.206000
     24 H6           5.1290     0.1060    -2.2670 h4         1 HGK       0.011800
     25 H7          -0.6230     2.6460     1.1470 ha         1 HGK       0.109500
     26 H8          -2.8620     1.7290     1.7140 ha         1 HGK       0.121000
     27 H10         -3.8230    -1.8020     1.0550 hc         1 HGK       0.037700
     28 H11         -4.2150    -0.2780     1.9830 hc         1 HGK       0.037700
@<TRIPOS>BOND
     1     1     2 ar  
     2     1    12 ar  
     3     1    19 1   
     4     2     3 ar  
     5     2    20 1   
     6     3     9 ar  
     7     3    17 1   
     8     4     5 1   
     9     4     8 1   
    10     4    21 1   
    11     4    22 1   
    12     5     6 2   
    13     5    17 1   
    14     6     7 1   
    15     6    23 1   
    16     7    11 2   
    17     7    24 1   
    18     8    11 1   
    19     8    18 2   
    20     9    10 ar  
    21     9    25 1   
    22    10    12 ar  
    23    10    26 1   
    24    12    16 1   
    25    13    14 1   
    26    14    15 1   
    27    14    16 1   
    28    16    27 1   
    29    16    28 1   
@<TRIPOS>SUBSTRUCTURE
     1 HGK         1 TEMP              0 ****  ****    0 ROOT
