@<TRIPOS>MOLECULE
HGK
   28    29     1     0     0
SMALL
abcg2


@<TRIPOS>ATOM
      1 C4          -1.7790    -1.0640    -0.4410 ca         1 HGK      -0.100500
      2 C5          -0.5800    -0.6450    -1.0050 ca         1 HGK      -0.117000
      3 C6          -0.0330     0.5550    -0.5920 ca         1 HGK       0.018100
      4 C11          2.4060    -0.2140     0.5310 c6         1 HGK      -0.232200
      5 C7           2.3230     0.6510    -0.6730 c2         1 HGK       0.210900
      6 C8           3.4540     1.0780    -1.2760 ce         1 HGK      -0.488600
      7 C9           4.7020     0.6800    -0.7160 ce         1 HGK       0.583500
      8 C10          3.8120    -0.4890     1.0420 c          1 HGK       0.703500
      9 C12         -0.6600     1.3390     0.3630 ca         1 HGK      -0.117000
     10 C13         -1.8580     0.9050     0.9080 ca         1 HGK      -0.100500
     11 N1           4.9100    -0.0370     0.3440 nf         1 HGK      -0.696100
     12 C3          -2.4370    -0.3030     0.5210 ca         1 HGK       0.024700
     13 O1          -6.0730    -0.5750     0.7620 o          1 HGK      -0.718500
     14 C1          -4.9820    -0.0050     0.5640 c          1 HGK       0.726000
     15 O2          -4.7980     1.0950     0.0150 o          1 HGK      -0.718500
     16 C2          -3.7360    -0.7550     1.1050 c3         1 HGK      -0.199100
     17 O3           1.1440     1.0060    -1.1730 os         1 HGK      -0.227200
     18 O4           3.9520    -1.1240     2.0660 o          1 HGK      -0.529100
     19 H1          -2.2060    -2.0070    -0.7610 ha         1 HGK       0.121000
     20 H2          -0.0840    -1.2480    -1.7550 ha         1 HGK       0.109500
     21 H3           1.8200     0.2110     1.3530 hc         1 HGK       0.110200
     22 H4           1.9380    -1.1830     0.3220 hc         1 HGK       0.110200
     23 H5           3.4380     1.6980    -2.1610 ha         1 HGK       0.206000
     24 H6           5.5930     1.0200    -1.2380 h4         1 HGK       0.011800
     25 H7          -0.2200     2.2790     0.6730 ha         1 HGK       0.109500
     26 H8          -2.3430     1.5160     1.6590 ha         1 HGK       0.121000
     27 H10         -3.8650    -1.8290     0.9530 hc         1 HGK       0.037700
     28 H11         -3.7240    -0.6050     2.1900 hc         1 HGK       0.037700
@<TRIPOS>BOND
     1     1     2 ar  
     2     1    12 ar  
     3     1    19 1   
     4     2     3 ar  
     5     2    20 1   
     6     3     9 ar  
     7     3    17 1   
     8     4     5 1   
     9     4     8 1   
    10     4    21 1   
    11     4    22 1   
    12     5     6 2   
    13     5    17 1   
    14     6     7 1   
    15     6    23 1   
    16     7    11 2   
    17     7    24 1   
    18     8    11 1   
    19     8    18 2   
    20     9    10 ar  
    21     9    25 1   
    22    10    12 ar  
    23    10    26 1   
    24    12    16 1   
    25    13    14 1   
    26    14    15 1   
    27    14    16 1   
    28    16    27 1   
    29    16    28 1   
@<TRIPOS>SUBSTRUCTURE
     1 HGK         1 TEMP              0 ****  ****    0 ROOT
