@<TRIPOS>MOLECULE
HGL
   29    30     1     0     0
SMALL
No Charge or Current Charge


@<TRIPOS>ATOM
      1 C2          -2.0160   -15.3470     5.7870 cc         1 HGL       0.710800
      2 O6          -0.6220   -17.3840     3.2990 o          1 HGL      -0.544000
      3 C4          -3.2440   -17.2390     5.7950 cd         1 HGL       0.126400
      4 C5          -2.4890   -17.7780     4.7870 cc         1 HGL       0.080500
      5 C6          -1.3600   -17.0120     4.2020 c          1 HGL       0.523500
      6 C8          -3.9750   -19.2640     5.2710 cd         1 HGL       0.404400
      7 N           -5.4520   -19.3540    10.8080 n8         1 HGL      -0.983200
      8 CA          -5.9580   -18.6850     9.5570 c3         1 HGL       0.018500
      9 CB          -4.8920   -18.8340     8.4390 c3         1 HGL      -0.107400
     10 CG          -5.2440   -18.0670     7.1430 c3         1 HGL       0.080600
     11 N9          -4.1970   -18.1780     6.1160 na         1 HGL      -0.150500
     12 N3          -3.0290   -15.9730     6.3430 nd         1 HGL      -0.673100
     13 N2          -1.7360   -14.1420     6.2490 nv         1 HGL      -1.051200
     14 N1          -1.2180   -15.7950     4.7920 ns         1 HGL      -0.462400
     15 N7          -2.9410   -19.0370     4.4570 nc         1 HGL      -0.624000
     16 C           -7.4030   -19.1200     9.0620 c          1 HGL       0.721000
     17 O           -7.5910   -20.2930     8.7610 o          1 HGL      -0.729500
     18 OXT         -8.2880   -18.2750     9.0430 o          1 HGL      -0.729500
     19 HN1         -0.4870   -15.2000     4.4400 hn         1 HGL       0.309500
     20 HA          -6.0270   -17.6120     9.7860 h1         1 HGL       0.048700
     21 HB          -4.7590   -19.8960     8.1990 hc         1 HGL       0.029200
     22 HBA         -3.9260   -18.4670     8.8090 hc         1 HGL       0.029200
     23 HG          -6.1820   -18.4510     6.7230 h1         1 HGL       0.083700
     24 HGA         -5.3960   -17.0050     7.3780 h1         1 HGL       0.083700
     25 HN2         -2.2200   -13.9190     7.1100 hn         1 HGL       0.492500
     26 HN2A        -0.7680   -13.8460     6.2090 hn         1 HGL       0.492500
     27 H8          -4.5880   -20.1560     5.3080 h5         1 HGL       0.064100
     28 HN          -5.4350   -20.3700    10.6550 hn         1 HGL       0.378000
     29 HNA         -4.4650   -19.1090    10.9490 hn         1 HGL       0.378000
@<TRIPOS>BOND
     1     1    12 2   
     2     1    13 1   
     3     1    14 1   
     4     2     5 2   
     5     3     4 2   
     6     3    11 1   
     7     3    12 1   
     8     4     5 1   
     9     4    15 1   
    10     5    14 1   
    11     6    11 1   
    12     6    15 2   
    13     6    27 1   
    14     7     8 1   
    15     7    28 1   
    16     7    29 1   
    17     8     9 1   
    18     8    16 1   
    19     8    20 1   
    20     9    10 1   
    21     9    21 1   
    22     9    22 1   
    23    10    11 1   
    24    10    23 1   
    25    10    24 1   
    26    13    25 1   
    27    13    26 1   
    28    14    19 1   
    29    16    17 1   
    30    16    18 1   
@<TRIPOS>SUBSTRUCTURE
     1 HGL         1 TEMP              0 ****  ****    0 ROOT
