@<TRIPOS>MOLECULE
HGL
   29    30     1     0     0
SMALL
bcc


@<TRIPOS>ATOM
      1 C2          -2.0560   -15.5610     6.1150 cc         1 HGL       0.710800
      2 O6          -0.6970   -17.2920     3.3240 o          1 HGL      -0.619500
      3 C4          -3.3330   -17.3310     5.7490 cd         1 HGL       0.111800
      4 C5          -2.6040   -17.7980     4.6690 cc         1 HGL       0.145800
      5 C6          -1.4600   -17.0610     4.2460 c          1 HGL       0.666000
      6 C8          -4.1900   -19.1630     4.9370 cd         1 HGL       0.404400
      7 N           -5.2360   -18.8760    10.7290 n8         1 HGL      -0.872800
      8 CA          -5.8080   -18.4770     9.4520 c3         1 HGL       0.018500
      9 CB          -4.8500   -18.7090     8.2730 c3         1 HGL      -0.107400
     10 CG          -5.3700   -18.1800     6.9420 c3         1 HGL       0.051300
     11 N9          -4.3520   -18.2120     5.9080 na         1 HGL      -0.171900
     12 N3          -3.1080   -16.2390     6.4970 nd         1 HGL      -0.673100
     13 N2          -1.7290   -14.4200     6.7440 nv         1 HGL      -0.940800
     14 N1          -1.2710   -15.9350     5.0610 ns         1 HGL      -0.529400
     15 N7          -3.1590   -18.9500     4.1740 nc         1 HGL      -0.624000
     16 C           -7.1340   -19.2330     9.2020 c          1 HGL       0.931600
     17 O           -7.1840   -20.4110     9.6080 o          1 HGL      -0.834800
     18 OXT         -8.0200   -18.6160     8.5780 o          1 HGL      -0.834800
     19 HN1         -0.4770   -15.3540     4.8220 hn         1 HGL       0.309500
     20 HA          -6.0250   -17.4040     9.4930 h1         1 HGL       0.048700
     21 HB          -4.6310   -19.7780     8.1830 hc         1 HGL       0.029200
     22 HBA         -3.9020   -18.2100     8.4990 hc         1 HGL       0.029200
     23 HG          -6.2160   -18.7630     6.5830 h1         1 HGL       0.083700
     24 HGA         -5.7130   -17.1500     7.0460 h1         1 HGL       0.083700
     25 HN2         -2.1950   -14.2230     7.6130 hn         1 HGL       0.437300
     26 HN2A        -0.8160   -14.0120     6.6310 hn         1 HGL       0.437300
     27 H8          -4.8800   -19.9900     4.8480 h5         1 HGL       0.064100
     28 HN          -5.2210   -19.8880    10.7640 hn         1 HGL       0.322800
     29 HNA         -4.2720   -18.5700    10.7900 hn         1 HGL       0.322800
@<TRIPOS>BOND
     1     1    12 2   
     2     1    13 1   
     3     1    14 1   
     4     2     5 2   
     5     3     4 2   
     6     3    11 1   
     7     3    12 1   
     8     4     5 1   
     9     4    15 1   
    10     5    14 1   
    11     6    11 1   
    12     6    15 2   
    13     6    27 1   
    14     7     8 1   
    15     7    28 1   
    16     7    29 1   
    17     8     9 1   
    18     8    16 1   
    19     8    20 1   
    20     9    10 1   
    21     9    21 1   
    22     9    22 1   
    23    10    11 1   
    24    10    23 1   
    25    10    24 1   
    26    13    25 1   
    27    13    26 1   
    28    14    19 1   
    29    16    17 1   
    30    16    18 1   
@<TRIPOS>SUBSTRUCTURE
     1 HGL         1 TEMP              0 ****  ****    0 ROOT
