@<TRIPOS>MOLECULE
HGM
   23    23     1     0     0
SMALL
bcc


@<TRIPOS>ATOM
      1 C           29.6290   -51.7740    27.0440 c          1 HGM       0.944600
      2 N           30.7510   -53.8600    26.3580 n7         1 HGM      -0.808200
      3 O           30.6430   -51.5160    27.7200 o          1 HGM      -0.825300
      4 C1          30.1290   -52.1260    24.6510 ca         1 HGM      -0.079300
      5 C2          31.4230   -51.6880    24.3750 ca         1 HGM      -0.088500
      6 C3          31.7220   -50.9830    23.2210 ca         1 HGM      -0.199000
      7 C4          30.7150   -50.6860    22.3040 ca         1 HGM       0.095100
      8 O4          31.0550   -49.9970    21.1920 oh         1 HGM      -0.515100
      9 C5          29.1390   -51.8230    23.7240 ca         1 HGM      -0.088500
     10 C6          29.4160   -51.1110    22.5630 ca         1 HGM      -0.199000
     11 CA          29.7970   -52.8570    25.9410 c3         1 HGM       0.069800
     12 CH3         31.0610   -54.8680    25.3710 c3         1 HGM       0.163100
     13 OXT         28.5110   -51.2330    27.1180 o          1 HGM      -0.825300
     14 HN          31.5860   -53.4090    26.7060 hn         1 HGM       0.378800
     15 H2          32.2280   -51.9070    25.0690 ha         1 HGM       0.133000
     16 H3          32.7370   -50.6590    23.0260 ha         1 HGM       0.117000
     17 HO4         30.2790   -49.8520    20.6390 ho         1 HGM       0.408000
     18 H5          28.1220   -52.1520    23.9020 ha         1 HGM       0.133000
     19 H6          28.6200   -50.8950    21.8600 ha         1 HGM       0.117000
     20 HA          28.8290   -53.3520    25.7970 h1         1 HGM       0.050700
     21 HH3         31.7770   -55.5770    25.7870 h1         1 HGM       0.005700
     22 HH3A        30.1570   -55.4290    25.1200 h1         1 HGM       0.005700
     23 HH3B        31.4760   -54.4890    24.4280 h1         1 HGM       0.005700
@<TRIPOS>BOND
     1     1     3 1   
     2     1    11 1   
     3     1    13 1   
     4     2    11 1   
     5     2    12 1   
     6     2    14 1   
     7     4     5 ar  
     8     4     9 ar  
     9     4    11 1   
    10     5     6 ar  
    11     5    15 1   
    12     6     7 ar  
    13     6    16 1   
    14     7     8 1   
    15     7    10 ar  
    16     8    17 1   
    17     9    10 ar  
    18     9    18 1   
    19    10    19 1   
    20    11    20 1   
    21    12    21 1   
    22    12    22 1   
    23    12    23 1   
@<TRIPOS>SUBSTRUCTURE
     1 HGM         1 TEMP              0 ****  ****    0 ROOT
