@<TRIPOS>MOLECULE
HGM
   23    23     1     0     0
SMALL
No Charge or Current Charge


@<TRIPOS>ATOM
      1 C           29.7510   -51.7220    27.2300 c          1 HGM       0.734000
      2 N           30.7690   -53.9220    26.2620 n7         1 HGM      -0.863400
      3 O           30.7830   -51.3860    27.8030 o          1 HGM      -0.720000
      4 C1          30.1770   -52.0310    24.7230 ca         1 HGM      -0.079300
      5 C2          31.4200   -51.3850    24.5520 ca         1 HGM      -0.070500
      6 C3          31.7180   -50.7250    23.3470 ca         1 HGM      -0.181000
      7 C4          30.7800   -50.7060    22.3050 ca         1 HGM       0.095100
      8 O4          31.0750   -50.0650    21.1400 oh         1 HGM      -0.554100
      9 C5          29.2410   -52.0060    23.6690 ca         1 HGM      -0.070500
     10 C6          29.5410   -51.3450    22.4640 ca         1 HGM      -0.181000
     11 CA          29.8390   -52.7560    26.0320 c3         1 HGM       0.069800
     12 CH3         30.8130   -54.9410    25.1980 c3         1 HGM       0.163100
     13 OXT         28.6460   -51.2980    27.5500 o          1 HGM      -0.720000
     14 HN          31.7170   -53.5470    26.3970 hn         1 HGM       0.434000
     15 H2          32.1560   -51.3940    25.3530 ha         1 HGM       0.115000
     16 H3          32.6790   -50.2310    23.2240 ha         1 HGM       0.099000
     17 HO4         30.3080   -50.1550    20.5350 ho         1 HGM       0.447000
     18 H5          28.2780   -52.5000    23.7820 ha         1 HGM       0.115000
     19 H6          28.8080   -51.3350    21.6610 ha         1 HGM       0.099000
     20 HA          28.8210   -53.1560    25.9300 h1         1 HGM       0.050700
     21 HH3         31.4760   -55.7670    25.4890 h1         1 HGM       0.005700
     22 HH3A        29.8120   -55.3530    25.0130 h1         1 HGM       0.005700
     23 HH3B        31.1930   -54.5160    24.2590 h1         1 HGM       0.005700
@<TRIPOS>BOND
     1     1     3 1   
     2     1    11 1   
     3     1    13 1   
     4     2    11 1   
     5     2    12 1   
     6     2    14 1   
     7     4     5 ar  
     8     4     9 ar  
     9     4    11 1   
    10     5     6 ar  
    11     5    15 1   
    12     6     7 ar  
    13     6    16 1   
    14     7     8 1   
    15     7    10 ar  
    16     8    17 1   
    17     9    10 ar  
    18     9    18 1   
    19    10    19 1   
    20    11    20 1   
    21    12    21 1   
    22    12    22 1   
    23    12    23 1   
@<TRIPOS>SUBSTRUCTURE
     1 HGM         1 TEMP              0 ****  ****    0 ROOT
