@<TRIPOS>MOLECULE
HGQ
   12    12     1     0     0
SMALL
No Charge or Current Charge


@<TRIPOS>ATOM
      1 C4          -0.3770     1.5000     0.0210 cc         1 HGQ      -0.287000
      2 C5          -1.7350     1.7440     0.0060 cd         1 HGQ      -0.025400
      3 N1          -2.6040     0.6670     0.0000 ns         1 HGQ      -0.363100
      4 C3           0.1300     0.1580     0.0290 cc         1 HGQ       0.055700
      5 C1          -2.2370    -0.6570     0.0070 c          1 HGQ       0.550200
      6 C2          -0.7820    -0.8740     0.0230 cd         1 HGQ      -0.291200
      7 Br1          1.9840    -0.1800     0.0490 br         1 HGQ      -0.064700
      8 H1           0.3310     2.3260     0.0260 ha         1 HGQ       0.215000
      9 H2          -2.2010     2.7290    -0.0010 h4         1 HGQ       0.203000
     10 H3          -3.6050     0.8220    -0.0110 hn         1 HGQ       0.330500
     11 H4          -0.4750    -1.9120     0.0280 ha         1 HGQ       0.224000
     12 O1          -3.0570    -1.5610     0.0010 o          1 HGQ      -0.548000
@<TRIPOS>BOND
     1     1     2 2   
     2     1     4 1   
     3     1     8 1   
     4     2     3 1   
     5     2     9 1   
     6     3     5 1   
     7     3    10 1   
     8     4     6 2   
     9     4     7 1   
    10     5     6 1   
    11     5    12 2   
    12     6    11 1   
@<TRIPOS>SUBSTRUCTURE
     1 HGQ         1 TEMP              0 ****  ****    0 ROOT
