@<TRIPOS>MOLECULE
HGQ
   12    12     1     0     0
SMALL
bcc


@<TRIPOS>ATOM
      1 C4          -0.3760     1.5060     0.0210 cc         1 HGQ      -0.237000
      2 C5          -1.7180     1.7030     0.0060 cd         1 HGQ       0.024600
      3 N1          -2.5790     0.6660    -0.0000 ns         1 HGQ      -0.430100
      4 C3           0.0690     0.1630     0.0290 cc         1 HGQ       0.055700
      5 C1          -2.2160    -0.6680     0.0070 c          1 HGQ       0.692700
      6 C2          -0.7910    -0.8880     0.0220 cd         1 HGQ      -0.241200
      7 BR1          1.9250    -0.1520     0.0490 br         1 HGQ      -0.064700
      8 H1           0.3020     2.3450     0.0260 ha         1 HGQ       0.165000
      9 H2          -2.1610     2.6880    -0.0010 h4         1 HGQ       0.153000
     10 H3          -3.5710     0.8650    -0.0100 hn         1 HGQ       0.330500
     11 H4          -0.4480    -1.9140     0.0280 ha         1 HGQ       0.174000
     12 O1          -3.0660    -1.5510     0.0020 o          1 HGQ      -0.623500
@<TRIPOS>BOND
     1     1     2 2   
     2     1     4 1   
     3     1     8 1   
     4     2     3 1   
     5     2     9 1   
     6     3     5 1   
     7     3    10 1   
     8     4     6 2   
     9     4     7 1   
    10     5     6 1   
    11     5    12 2   
    12     6    11 1   
@<TRIPOS>SUBSTRUCTURE
     1 HGQ         1 TEMP              0 ****  ****    0 ROOT
