@<TRIPOS>MOLECULE
HGS
   38    37     1     0     0
SMALL
No Charge or Current Charge


@<TRIPOS>ATOM
      1 C1          -4.7590     2.5580     0.8900 c          1 HGS       0.694000
      2 N1          -5.7240     0.4130    -0.2780 n8         1 HGS      -1.004200
      3 C2           2.0490    -0.2260    -0.6450 c          1 HGS       0.572100
      4 N2          -0.3660    -0.8080    -0.9270 ns         1 HGS      -0.502900
      5 C4           5.5490     1.9640     1.5520 c          1 HGS       0.724000
      6 O11         -5.2050     2.3410     2.0100 o          1 HGS      -0.735500
      7 O12         -4.5790     3.6850     0.4510 o          1 HGS      -0.735500
      8 O41          6.5390     1.4820     2.0800 o          1 HGS      -0.738500
      9 O42          5.5100     3.0920     1.0880 o          1 HGS      -0.738500
     10 CA1         -4.5380     1.3270    -0.0850 c3         1 HGS       0.010500
     11 CA2          0.9940    -1.3650    -0.7150 c3         1 HGS       0.037700
     12 CA3          4.4080     0.3110     0.0690 c3         1 HGS       0.115000
     13 CA4          4.3090     1.0760     1.4010 c3         1 HGS      -0.231400
     14 CB1         -3.2810     0.5220     0.3430 c3         1 HGS      -0.043400
     15 CB2          1.3710    -2.3800    -1.8240 c3         1 HGS       0.077600
     16 CD1         -1.5000    -1.2000    -0.2510 c          1 HGS       0.605100
     17 OE1         -1.4800    -2.0450     0.6330 o          1 HGS      -0.613100
     18 CG1         -2.7920    -0.5130    -0.7040 c3         1 HGS      -0.147400
     19 SG2          0.1650    -3.7750    -2.0620 sh         1 HGS      -0.443800
     20 HN1         -6.0420     0.0980     0.6470 hn         1 HGS       0.379000
     21 HN1A        -6.5200     0.9660    -0.6200 hn         1 HGS       0.379000
     22 HN2         -0.4800    -0.0760    -1.6180 hn         1 HGS       0.319500
     23 HN3          3.3750    -1.5570     0.1800 hn         1 HGS       0.309500
     24 HA1         -4.3190     1.7590    -1.0720 h1         1 HGS       0.031700
     25 HA2          1.0220    -1.8820     0.2520 h1         1 HGS       0.088700
     26 HA3          5.3330    -0.2820     0.0550 h1         1 HGS       0.057700
     27 HA3A         4.4530     1.0210    -0.7680 h1         1 HGS       0.057700
     28 HA4          4.2800     0.3130     2.1880 hc         1 HGS       0.022200
     29 HA4A         3.3990     1.6860     1.3380 hc         1 HGS       0.022200
     30 HB1         -2.4650     1.2320     0.5330 hc         1 HGS       0.058200
     31 HB1A        -3.4770     0.0160     1.2970 hc         1 HGS       0.058200
     32 HB2          1.4570    -1.8460    -2.7800 h1         1 HGS       0.068200
     33 HB2A         2.3530    -2.8170    -1.6010 h1         1 HGS       0.068200
     34 HG1         -3.5650    -1.2790    -0.8320 hc         1 HGS       0.053200
     35 HG1A        -2.6260     0.0070    -1.6550 hc         1 HGS       0.053200
     36 HSG2         0.8330    -4.3800    -3.0740 hs         1 HGS       0.180800
     37 O2           1.8260     0.9170    -1.0270 o          1 HGS      -0.625100
     38 N3           3.2730    -0.5950    -0.1230 ns         1 HGS      -0.484900
@<TRIPOS>BOND
     1     1     6 1   
     2     1     7 1   
     3     1    10 1   
     4     2    10 1   
     5     2    20 1   
     6     2    21 1   
     7     3    11 1   
     8     3    37 2   
     9     3    38 1   
    10     4    11 1   
    11     4    16 1   
    12     4    22 1   
    13     5     8 1   
    14     5     9 1   
    15     5    13 1   
    16    10    14 1   
    17    10    24 1   
    18    11    15 1   
    19    11    25 1   
    20    12    13 1   
    21    12    26 1   
    22    12    27 1   
    23    12    38 1   
    24    13    28 1   
    25    13    29 1   
    26    14    18 1   
    27    14    30 1   
    28    14    31 1   
    29    15    19 1   
    30    15    32 1   
    31    15    33 1   
    32    16    17 2   
    33    16    18 1   
    34    18    34 1   
    35    18    35 1   
    36    19    36 1   
    37    23    38 1   
@<TRIPOS>SUBSTRUCTURE
     1 HGS         1 TEMP              0 ****  ****    0 ROOT
