@<TRIPOS>MOLECULE
HGS
   38    37     1     0     0
SMALL
abcg2


@<TRIPOS>ATOM
      1 C1          -4.9040     2.5640     0.7060 c          1 HGS       0.694000
      2 N1          -5.4470     0.1720     0.0420 n8         1 HGS      -1.004200
      3 C2           1.9170    -0.2910    -0.9570 c          1 HGS       0.572100
      4 N2          -0.3890    -1.0590    -1.1780 ns         1 HGS      -0.502900
      5 C4           5.6800     1.6010     1.7380 c          1 HGS       0.724000
      6 O11         -5.8290     2.4750     1.5360 o          1 HGS      -0.735500
      7 O12         -4.2280     3.5840     0.4540 o          1 HGS      -0.735500
      8 O41          6.3700     1.4240     2.7610 o          1 HGS      -0.738500
      9 O42          5.7900     2.5300     0.9150 o          1 HGS      -0.738500
     10 CA1         -4.5240     1.2880    -0.0890 c3         1 HGS       0.010500
     11 CA2          0.9700    -1.4950    -0.9850 c3         1 HGS       0.037700
     12 CA3          3.7620     0.7930     0.2310 c3         1 HGS       0.115000
     13 CA4          4.5790     0.5530     1.4860 c3         1 HGS      -0.231400
     14 CB1         -3.1130     0.8480     0.3050 c3         1 HGS      -0.043400
     15 CB2          1.3940    -2.4290    -2.1110 c3         1 HGS       0.077600
     16 CD1         -1.2180    -0.7580    -0.1550 c          1 HGS       0.605100
     17 OE1         -0.8830    -0.8840     1.0140 o          1 HGS      -0.613100
     18 CG1         -2.5940    -0.2910    -0.5620 c3         1 HGS      -0.147400
     19 SG2          0.2250    -3.8280    -2.1890 sh         1 HGS      -0.443800
     20 HN1         -5.6620     0.0610     1.0270 hn         1 HGS       0.379000
     21 HN1A        -6.3320     0.4290    -0.3790 hn         1 HGS       0.379000
     22 HN2         -0.6760    -0.8190    -2.1150 hn         1 HGS       0.319500
     23 HN3          2.6930    -0.9600     0.7840 hn         1 HGS       0.309500
     24 HA1         -4.4970     1.5660    -1.1500 h1         1 HGS       0.031700
     25 HA2          1.0170    -2.0420    -0.0420 h1         1 HGS       0.088700
     26 HA3          4.4100     0.8090    -0.6470 h1         1 HGS       0.057700
     27 HA3A         3.2700     1.7670     0.2780 h1         1 HGS       0.057700
     28 HA4          5.0460    -0.4360     1.4420 hc         1 HGS       0.022200
     29 HA4A         3.9190     0.5300     2.3600 hc         1 HGS       0.022200
     30 HB1         -2.4420     1.7050     0.2280 hc         1 HGS       0.058200
     31 HB1A        -3.1090     0.5410     1.3560 hc         1 HGS       0.058200
     32 HB2          1.4120    -1.9010    -3.0640 h1         1 HGS       0.068200
     33 HB2A         2.3950    -2.8070    -1.9090 h1         1 HGS       0.068200
     34 HG1         -3.2750    -1.1440    -0.4850 hc         1 HGS       0.053200
     35 HG1A        -2.6030     0.0090    -1.6140 hc         1 HGS       0.053200
     36 HSG2         1.0050    -4.6430    -2.9060 hs         1 HGS       0.180800
     37 O2           1.8890     0.5450    -1.8490 o          1 HGS      -0.625100
     38 N3           2.7620    -0.2500     0.0730 ns         1 HGS      -0.484900
@<TRIPOS>BOND
     1     1     6 1   
     2     1     7 1   
     3     1    10 1   
     4     2    10 1   
     5     2    20 1   
     6     2    21 1   
     7     3    11 1   
     8     3    37 2   
     9     3    38 1   
    10     4    11 1   
    11     4    16 1   
    12     4    22 1   
    13     5     8 1   
    14     5     9 1   
    15     5    13 1   
    16    10    14 1   
    17    10    24 1   
    18    11    15 1   
    19    11    25 1   
    20    12    13 1   
    21    12    26 1   
    22    12    27 1   
    23    12    38 1   
    24    13    28 1   
    25    13    29 1   
    26    14    18 1   
    27    14    30 1   
    28    14    31 1   
    29    15    19 1   
    30    15    32 1   
    31    15    33 1   
    32    16    17 2   
    33    16    18 1   
    34    18    34 1   
    35    18    35 1   
    36    19    36 1   
    37    23    38 1   
@<TRIPOS>SUBSTRUCTURE
     1 HGS         1 TEMP              0 ****  ****    0 ROOT
