@<TRIPOS>MOLECULE
HGT
   39    39     1     0     0
SMALL
bcc


@<TRIPOS>ATOM
      1 O2         -16.8990    -0.9470    25.7830 oh         1 HGT      -0.575800
      2 C10        -15.5870    -0.4340    25.8270 c6         1 HGT       0.128100
      3 C23        -15.4060     0.6640    26.8670 c6         1 HGT       0.111100
      4 O4         -16.3460     1.6800    26.6040 oh         1 HGT      -0.579800
      5 C25        -13.9620     1.1820    26.8270 c6         1 HGT       0.064500
      6 N2         -13.7180     1.8340    25.5530 n8         1 HGT      -0.871800
      7 C2         -14.5410    -1.5470    26.0350 c6         1 HGT       0.087100
      8 C26        -14.8550    -2.4690    27.2190 c3         1 HGT       0.101400
      9 O5         -13.8640    -3.4510    27.4070 oh         1 HGT      -0.577800
     10 O1         -13.2370    -1.0140    26.1050 os         1 HGT      -0.374600
     11 C24        -13.0350    -0.0190    27.0830 c6         1 HGT       0.426300
     12 N1         -11.6230     0.2120    27.1530 n7         1 HGT      -0.850200
     13 C22        -10.9200     0.8270    26.0440 c3         1 HGT       0.181800
     14 C21         -9.4660     0.3830    26.0720 c3         1 HGT       0.152400
     15 O3          -8.7730     1.0440    25.0260 os         1 HGT      -0.387500
     16 SNN         -7.0380     0.3940    24.4090 s6         1 HGT       0.603800
     17 O36         -5.7900     0.6440    25.8840 oh         1 HGT      -0.561367
     18 O35         -7.0720    -1.5060    23.9800 oh         1 HGT      -0.561367
     19 O34         -6.5760     1.3840    22.7970 oh         1 HGT      -0.561367
     20 HO2        -17.2090    -1.1210    26.6780 ho         1 HGT       0.398000
     21 H10        -15.4070     0.0000    24.8400 h1         1 HGT       0.114700
     22 H23        -15.5800     0.2450    27.8720 h1         1 HGT       0.026700
     23 HO4        -16.3080     2.3150    27.3260 ho         1 HGT       0.402000
     24 H25        -13.8330     1.8600    27.6880 h1         1 HGT       0.014700
     25 HN21       -12.9220     2.4510    25.6270 hn         1 HGT       0.347800
     26 HN22       -14.5040     2.4370    25.3430 hn         1 HGT       0.347800
     27 H2         -14.5430    -2.1720    25.1350 h1         1 HGT       0.086700
     28 H261       -15.8380    -2.9240    27.0550 h1         1 HGT       0.041700
     29 H262       -14.9220    -1.9190    28.1610 h1         1 HGT       0.041700
     30 HO5        -13.8390    -4.0080    26.6230 ho         1 HGT       0.405000
     31 H24        -13.3060    -0.3910    28.0830 h2         1 HGT       0.039700
     32 HN1        -11.3830     0.6480    28.0320 hn         1 HGT       0.378800
     33 H221       -10.9480     1.9250    26.0590 h1         1 HGT       0.049200
     34 H222       -11.3740     0.5070    25.1070 h1         1 HGT       0.049200
     35 H211        -9.4310    -0.7090    25.9740 h1         1 HGT       0.031700
     36 H212        -9.0270     0.6310    27.0480 h1         1 HGT       0.031700
     37 H36         -4.9070     0.3250    25.6640 ho         1 HGT       0.412667
     38 H35         -7.7150    -1.7050    23.2900 ho         1 HGT       0.412667
     39 H34         -6.6430     2.3370    22.9300 ho         1 HGT       0.412667
@<TRIPOS>BOND
     1     1     2 1   
     2     1    20 1   
     3     2     3 1   
     4     2     7 1   
     5     2    21 1   
     6     3     4 1   
     7     3     5 1   
     8     3    22 1   
     9     4    23 1   
    10     5     6 1   
    11     5    11 1   
    12     5    24 1   
    13     6    25 1   
    14     6    26 1   
    15     7     8 1   
    16     7    10 1   
    17     7    27 1   
    18     8     9 1   
    19     8    28 1   
    20     8    29 1   
    21     9    30 1   
    22    10    11 1   
    23    11    12 1   
    24    11    31 1   
    25    12    13 1   
    26    12    32 1   
    27    13    14 1   
    28    13    33 1   
    29    13    34 1   
    30    14    15 1   
    31    14    35 1   
    32    14    36 1   
    33    15    16 1   
    34    16    17 1   
    35    16    18 1   
    36    16    19 1   
    37    17    37 1   
    38    18    38 1   
    39    19    39 1   
@<TRIPOS>SUBSTRUCTURE
     1 HGT         1 TEMP              0 ****  ****    0 ROOT
