@<TRIPOS>MOLECULE
HGT
   39    39     1     0     0
SMALL
No Charge or Current Charge


@<TRIPOS>ATOM
      1 O2         -17.1180    -0.6110    25.9530 oh         1 HGT      -0.698000
      2 C10        -15.7200    -0.2650    25.8990 c6         1 HGT       0.151300
      3 C23        -15.3550     0.6780    27.0890 c6         1 HGT       0.134300
      4 O4         -16.1710     1.8680    27.0460 oh         1 HGT      -0.642000
      5 C25        -13.8320     1.0320    27.0510 c6         1 HGT       0.064500
      6 N2         -13.5410     2.0010    25.9360 n8         1 HGT      -0.982200
      7 C2         -14.8080    -1.5350    25.8880 c6         1 HGT       0.110300
      8 C26        -15.0820    -2.5610    27.0390 c3         1 HGT       0.124600
      9 O5         -14.0660    -3.5760    27.0880 oh         1 HGT      -0.700000
     10 O1         -13.4050    -1.1530    25.9180 os         1 HGT      -0.421000
     11 C24        -13.0180    -0.3320    27.0390 c6         1 HGT       0.449500
     12 N1         -11.5480    -0.1880    27.0170 n7         1 HGT      -0.905400
     13 C22        -10.8670     0.1500    25.7340 c3         1 HGT       0.181800
     14 C21         -9.3260     0.1040    25.8800 c3         1 HGT       0.175600
     15 O3          -8.7430     0.4440    24.6100 os         1 HGT      -0.410700
     16 SNN         -7.1140     0.4520    24.5470 s6         1 HGT       0.603800
     17 O36         -6.4670     1.5650    25.5180 oh         1 HGT      -0.600367
     18 O35         -6.4820    -1.0070    24.8170 oh         1 HGT      -0.600367
     19 O34         -6.6940     0.8580    23.0480 oh         1 HGT      -0.600367
     20 HO2        -17.5720     0.2230    26.2210 ho         1 HGT       0.497000
     21 H10        -15.5100     0.2860    24.9690 h1         1 HGT       0.114700
     22 H23        -15.5530     0.1430    28.0290 h1         1 HGT       0.026700
     23 HO4        -15.9670     2.3840    27.8570 ho         1 HGT       0.441000
     24 H25        -13.5960     1.5660    27.9830 h1         1 HGT       0.014700
     25 HN21       -12.7320     2.5770    26.1920 hn         1 HGT       0.403000
     26 HN22       -14.3180     2.6710    25.8910 hn         1 HGT       0.403000
     27 H2         -14.9860    -2.0630    24.9400 h1         1 HGT       0.086700
     28 H261       -16.0670    -3.0180    26.8740 h1         1 HGT       0.041700
     29 H262       -15.1290    -2.0310    27.9990 h1         1 HGT       0.041700
     30 HO5        -13.2450    -3.1460    26.7470 ho         1 HGT       0.504000
     31 H24        -13.2560    -0.8620    27.9740 h2         1 HGT       0.039700
     32 HN1        -11.2980     0.5150    27.7200 hn         1 HGT       0.434000
     33 H221       -11.1450     1.1540    25.3900 h1         1 HGT       0.049200
     34 H222       -11.1510    -0.5600    24.9460 h1         1 HGT       0.049200
     35 H211        -9.0210    -0.9050    26.1890 h1         1 HGT       0.031700
     36 H212        -9.0110     0.8150    26.6540 h1         1 HGT       0.031700
     37 H36         -5.9310     2.1150    24.9130 ho         1 HGT       0.451667
     38 H35         -5.9540    -1.1810    24.0130 ho         1 HGT       0.451667
     39 H34         -7.5500     0.9870    22.5910 ho         1 HGT       0.451667
@<TRIPOS>BOND
     1     1     2 1   
     2     1    20 1   
     3     2     3 1   
     4     2     7 1   
     5     2    21 1   
     6     3     4 1   
     7     3     5 1   
     8     3    22 1   
     9     4    23 1   
    10     5     6 1   
    11     5    11 1   
    12     5    24 1   
    13     6    25 1   
    14     6    26 1   
    15     7     8 1   
    16     7    10 1   
    17     7    27 1   
    18     8     9 1   
    19     8    28 1   
    20     8    29 1   
    21     9    30 1   
    22    10    11 1   
    23    11    12 1   
    24    11    31 1   
    25    12    13 1   
    26    12    32 1   
    27    13    14 1   
    28    13    33 1   
    29    13    34 1   
    30    14    15 1   
    31    14    35 1   
    32    14    36 1   
    33    15    16 1   
    34    16    17 1   
    35    16    18 1   
    36    16    19 1   
    37    17    37 1   
    38    18    38 1   
    39    19    39 1   
@<TRIPOS>SUBSTRUCTURE
     1 HGT         1 TEMP              0 ****  ****    0 ROOT
