@<TRIPOS>MOLECULE
HGU
   10     9     1     0     0
SMALL
No Charge or Current Charge


@<TRIPOS>ATOM
      1 O           -0.2890     0.0150    -1.8690 oh         1 HGU      -0.386300
      2 N           -0.5660     0.6370    -0.5620 nu         1 HGU      -0.669900
      3 C            0.0990     0.1360     0.5050 c2         1 HGU       0.742100
      4 NH1          1.3370     0.0010     0.5120 n2         1 HGU      -0.860100
      5 NH2         -0.6970     0.0380     1.5520 nv         1 HGU      -1.022200
      6 HO          -0.3830    -0.9620    -1.7500 ho         1 HGU       0.410000
      7 HN          -1.5690     0.7600    -0.4120 hn         1 HGU       0.450000
      8 HN1          1.6310     0.2530    -0.4400 hn         1 HGU       0.403400
      9 HN21        -0.1630    -0.2190     2.3730 hn         1 HGU       0.466500
     10 HN22        -1.4860    -0.5760     1.3970 hn         1 HGU       0.466500
@<TRIPOS>BOND
     1     1     2 1   
     2     1     6 1   
     3     2     3 1   
     4     2     7 1   
     5     3     4 2   
     6     3     5 1   
     7     4     8 1   
     8     5     9 1   
     9     5    10 1   
@<TRIPOS>SUBSTRUCTURE
     1 HGU         1 TEMP              0 ****  ****    0 ROOT
