@<TRIPOS>MOLECULE
HGU
   10     9     1     0     0
SMALL
abcg2


@<TRIPOS>ATOM
      1 O           -0.2020     0.2710    -1.8330 oh         1 HGU      -0.386300
      2 N           -0.7390     0.4870    -0.5860 nu         1 HGU      -0.669900
      3 C            0.0660     0.1280     0.4930 c2         1 HGU       0.742100
      4 NH1          1.3220    -0.0890     0.4520 n2         1 HGU      -0.860100
      5 NH2         -0.6190     0.1490     1.6800 nv         1 HGU      -1.022200
      6 HO          -0.1640    -0.6860    -1.9780 ho         1 HGU       0.410000
      7 HN          -1.7030     0.1780    -0.5390 hn         1 HGU       0.450000
      8 HN1          1.6750     0.0170    -0.4910 hn         1 HGU       0.403400
      9 HN21        -0.1240    -0.2800     2.4450 hn         1 HGU       0.466500
     10 HN22        -1.5970    -0.0920     1.6630 hn         1 HGU       0.466500
@<TRIPOS>BOND
     1     1     2 1   
     2     1     6 1   
     3     2     3 1   
     4     2     7 1   
     5     3     4 2   
     6     3     5 1   
     7     4     8 1   
     8     5     9 1   
     9     5    10 1   
@<TRIPOS>SUBSTRUCTURE
     1 HGU         1 TEMP              0 ****  ****    0 ROOT
