@<TRIPOS>MOLECULE
HGV
   47    49     1     0     0
SMALL
No Charge or Current Charge


@<TRIPOS>ATOM
      1 PA           1.6510    -2.1250    -1.4480 p5         1 HGV       1.453800
      2 O1A          0.8570    -1.5550    -2.5780 o          1 HGV      -0.873500
      3 O2A          2.9900    -2.6090    -1.9030 o          1 HGV      -0.873500
      4 O3A          1.6950    -1.2140    -0.1610 os         1 HGV      -0.706800
      5 O5           0.8710    -3.3820    -0.7950 os         1 HGV      -0.562400
      6 PB           2.8210    -0.1020    -0.2010 p5         1 HGV       1.513400
      7 O2B          2.8310     0.6400    -1.5020 o          1 HGV      -0.875000
      8 O1B          4.1460    -0.6730     0.1980 o          1 HGV      -0.875000
      9 C3B          2.0850     0.9740     1.0460 c3         1 HGV      -0.761700
     10 C4B          1.3280     0.2840     2.2010 c3         1 HGV       0.017900
     11 PG           3.4710     1.9430     1.6060 p5         1 HGV       1.353500
     12 O1G          4.3190     2.4590     0.4980 o          1 HGV      -0.962500
     13 O2G          2.8610     3.1080     2.3080 o          1 HGV      -0.962500
     14 O3G          4.2730     1.1880     2.6100 o          1 HGV      -0.962500
     15 C5          -0.5640    -3.4460    -0.6840 c3         1 HGV       0.234600
     16 C4          -1.1280    -2.3690     0.2880 c5         1 HGV       0.150300
     17 O4          -1.4410    -1.1490    -0.4110 os         1 HGV      -0.374000
     18 C1          -2.2690    -0.3400     0.4470 c5         1 HGV       0.331300
     19 N9          -3.2440     0.3740    -0.3710 na         1 HGV      -0.315300
     20 C9          -4.1660     1.3080     0.0240 ca         1 HGV       0.063500
     21 N3          -4.4400     1.8140     1.2440 nb         1 HGV      -0.228000
     22 C2          -5.4280     2.7390     1.2960 ca         1 HGV       0.114900
     23 N1          -6.1600     3.2000     0.2540 nb         1 HGV      -0.349000
     24 C6          -5.8670     2.6770    -0.9460 ca         1 HGV       0.426900
     25 N6          -6.6030     3.1520    -1.9880 nv         1 HGV      -1.084900
     26 C7          -4.8480     1.7090    -1.0970 ca         1 HGV      -0.049600
     27 N7          -4.3990     1.0730    -2.2480 nc         1 HGV      -0.540100
     28 C8          -3.4210     0.2740    -1.7670 cd         1 HGV       0.520700
     29 C10         -2.8710    -1.3290     1.4950 c5         1 HGV      -0.168400
     30 C3          -2.5110    -2.7140     0.9030 c5         1 HGV       0.112300
     31 O3          -2.4620    -3.7240     1.9130 oh         1 HGV      -0.714000
     32 H3           1.4110     1.6480     0.5170 hc         1 HGV       0.055700
     33 H4           1.9390    -0.5000     2.6630 hc         1 HGV      -0.023967
     34 H5           1.0530     1.0090     2.9750 hc         1 HGV      -0.023967
     35 H6           0.3980    -0.1700     1.8440 hc         1 HGV      -0.023967
     36 H9          -1.0390    -3.3390    -1.6680 h1         1 HGV       0.004200
     37 H10         -0.8410    -4.4360    -0.3010 h1         1 HGV       0.004200
     38 H11         -0.3940    -2.1690     1.0800 h1         1 HGV       0.061700
     39 H12         -1.6620     0.4260     0.9470 h2         1 HGV       0.090700
     40 H13         -5.6570     3.1540     2.2760 h5         1 HGV      -0.002900
     41 H14         -7.1020     4.0280    -1.8560 hn         1 HGV       0.494000
     42 H15         -6.2650     2.9530    -2.9260 hn         1 HGV       0.494000
     43 H16         -2.8080    -0.3940    -2.3650 h5         1 HGV       0.184800
     44 H17         -2.4010    -1.1710     2.4730 hc         1 HGV       0.053700
     45 H18         -3.9500    -1.2020     1.6300 hc         1 HGV       0.053700
     46 H19         -3.2190    -2.9940     0.1080 h1         1 HGV       0.050700
     47 H20         -3.3620    -3.7790     2.3090 ho         1 HGV       0.474000
@<TRIPOS>BOND
     1     1     2 1   
     2     1     3 1   
     3     1     4 1   
     4     1     5 1   
     5     4     6 1   
     6     5    15 1   
     7     6     7 1   
     8     6     8 1   
     9     6     9 1   
    10     9    10 1   
    11     9    11 1   
    12     9    32 1   
    13    10    33 1   
    14    10    34 1   
    15    10    35 1   
    16    11    12 1   
    17    11    13 1   
    18    11    14 1   
    19    15    16 1   
    20    15    36 1   
    21    15    37 1   
    22    16    17 1   
    23    16    30 1   
    24    16    38 1   
    25    17    18 1   
    26    18    19 1   
    27    18    29 1   
    28    18    39 1   
    29    19    20 1   
    30    19    28 1   
    31    20    21 ar  
    32    20    26 ar  
    33    21    22 ar  
    34    22    23 ar  
    35    22    40 1   
    36    23    24 ar  
    37    24    25 1   
    38    24    26 ar  
    39    25    41 1   
    40    25    42 1   
    41    26    27 1   
    42    27    28 2   
    43    28    43 1   
    44    29    30 1   
    45    29    44 1   
    46    29    45 1   
    47    30    31 1   
    48    30    46 1   
    49    31    47 1   
@<TRIPOS>SUBSTRUCTURE
     1 HGV         1 TEMP              0 ****  ****    0 ROOT
