@<TRIPOS>MOLECULE
HGV
   47    49     1     0     0
SMALL
bcc


@<TRIPOS>ATOM
      1 PA           1.2970    -1.9620    -1.3790 p5         1 HGV       1.453800
      2 O1A          0.4000    -0.8930    -1.9380 o          1 HGV      -0.873500
      3 O2A          1.9130    -2.9590    -2.3170 o          1 HGV      -0.873500
      4 O3A          2.4210    -1.3760    -0.3770 os         1 HGV      -0.706800
      5 O5           0.4680    -2.8030    -0.2130 os         1 HGV      -0.539200
      6 PB           3.2580     0.0910    -0.5850 p5         1 HGV       1.355600
      7 O2B          3.4760     0.2290    -2.0690 o          1 HGV      -0.875000
      8 O1B          4.4450    -0.0850     0.3280 o          1 HGV      -0.875000
      9 C3B          2.0840     1.3030     0.0780 c3         1 HGV      -0.446100
     10 C4B          1.4710     0.8640     1.4040 c3         1 HGV       0.017900
     11 PG           2.8310     3.0180     0.2530 p5         1 HGV       1.195700
     12 O1G          3.6950     3.2320    -0.9960 o          1 HGV      -0.962500
     13 O2G          1.6110     3.9540     0.3110 o          1 HGV      -0.962500
     14 O3G          3.6360     3.0070     1.5570 o          1 HGV      -0.962500
     15 C5          -0.9060    -3.0470    -0.3720 c3         1 HGV       0.211400
     16 C4          -1.6270    -2.8760     0.9470 c5         1 HGV       0.127100
     17 O4          -1.4020    -1.5720     1.4860 os         1 HGV      -0.327600
     18 C1          -2.6000    -0.9230     1.7620 c5         1 HGV       0.278800
     19 N9          -2.8670     0.0630     0.7040 na         1 HGV      -0.286000
     20 C9          -3.9570     0.8800     0.6380 ca         1 HGV       0.391800
     21 N3          -5.0120     0.9270     1.4540 nb         1 HGV      -0.754000
     22 C2          -5.8830     1.8450     1.0770 ca         1 HGV       0.640900
     23 N1          -5.8170     2.6740     0.0370 nb         1 HGV      -0.875000
     24 C6          -4.7500     2.6210    -0.7670 ca         1 HGV       0.755200
     25 N6          -4.6800     3.4450    -1.8170 nv         1 HGV      -0.974500
     26 C7          -3.7440     1.6830    -0.4730 ca         1 HGV      -0.180200
     27 N7          -2.5530     1.3770    -1.0720 nc         1 HGV      -0.540100
     28 C8          -2.0540     0.4180    -0.3410 cd         1 HGV       0.520700
     29 C10         -3.6620    -2.0090     1.8220 c5         1 HGV      -0.168400
     30 C3          -3.1450    -3.0180     0.8020 c5         1 HGV       0.089100
     31 O3          -3.5200    -4.3490     1.0300 oh         1 HGV      -0.591800
     32 H3           1.2800     1.3740    -0.6630 hc         1 HGV       0.055700
     33 H4           2.2470     0.6550     2.1410 hc         1 HGV      -0.023967
     34 H5           0.8510     1.6650     1.8100 hc         1 HGV      -0.023967
     35 H6           0.8380    -0.0180     1.3040 hc         1 HGV      -0.023967
     36 H9          -1.3530    -2.3760    -1.1130 h1         1 HGV       0.004200
     37 H10         -1.0870    -4.0730    -0.7180 h1         1 HGV       0.004200
     38 H11         -1.2670    -3.6090     1.6800 h1         1 HGV       0.061700
     39 H12         -2.5090    -0.3700     2.7000 h2         1 HGV       0.090700
     40 H13         -6.7720     1.9410     1.6930 h5         1 HGV      -0.002900
     41 H14         -5.3980     4.1310    -1.9730 hn         1 HGV       0.438800
     42 H15         -3.8610     3.4710    -2.3980 hn         1 HGV       0.438800
     43 H16         -1.1030    -0.0600    -0.5360 h5         1 HGV       0.184800
     44 H17         -3.6490    -2.4550     2.8190 hc         1 HGV       0.053700
     45 H18         -4.6690    -1.6470     1.6230 hc         1 HGV       0.053700
     46 H19         -3.4450    -2.6960    -0.2060 h1         1 HGV       0.050700
     47 H20         -4.4490    -4.4470     0.7990 ho         1 HGV       0.375000
@<TRIPOS>BOND
     1     1     2 1   
     2     1     3 1   
     3     1     4 1   
     4     1     5 1   
     5     4     6 1   
     6     5    15 1   
     7     6     7 1   
     8     6     8 1   
     9     6     9 1   
    10     9    10 1   
    11     9    11 1   
    12     9    32 1   
    13    10    33 1   
    14    10    34 1   
    15    10    35 1   
    16    11    12 1   
    17    11    13 1   
    18    11    14 1   
    19    15    16 1   
    20    15    36 1   
    21    15    37 1   
    22    16    17 1   
    23    16    30 1   
    24    16    38 1   
    25    17    18 1   
    26    18    19 1   
    27    18    29 1   
    28    18    39 1   
    29    19    20 1   
    30    19    28 1   
    31    20    21 ar  
    32    20    26 ar  
    33    21    22 ar  
    34    22    23 ar  
    35    22    40 1   
    36    23    24 ar  
    37    24    25 1   
    38    24    26 ar  
    39    25    41 1   
    40    25    42 1   
    41    26    27 1   
    42    27    28 2   
    43    28    43 1   
    44    29    30 1   
    45    29    44 1   
    46    29    45 1   
    47    30    31 1   
    48    30    46 1   
    49    31    47 1   
@<TRIPOS>SUBSTRUCTURE
     1 HGV         1 TEMP              0 ****  ****    0 ROOT
