@<TRIPOS>MOLECULE
HGW
   10    10     1     0     0
SMALL
abcg2


@<TRIPOS>ATOM
      1 C4          -1.4840     1.2160     0.0150 ca         1 HGW       0.141400
      2 N1          -2.7950    -1.1570    -0.0340 nb         1 HGW      -0.174000
      3 N2          -2.8100     1.2050    -0.0000 nb         1 HGW      -0.174000
      4 C3          -3.4010     0.0200    -0.0230 ca         1 HGW       0.133900
      5 C1          -0.7560     0.0370     0.0060 ca         1 HGW       0.067000
      6 C2          -1.4690    -1.1520    -0.0200 ca         1 HGW       0.141400
      7 H1          -0.9980     2.1850     0.0340 h4         1 HGW       0.038100
      8 H2          -4.4850     0.0130    -0.0350 h5         1 HGW       0.056100
      9 H3          -0.9710    -2.1150    -0.0290 h4         1 HGW       0.038100
     10 I1           1.3310     0.0500     0.0320 i          1 HGW      -0.268000
@<TRIPOS>BOND
     1     1     3 ar  
     2     1     5 ar  
     3     1     7 1   
     4     2     4 ar  
     5     2     6 ar  
     6     3     4 ar  
     7     4     8 1   
     8     5     6 ar  
     9     5    10 1   
    10     6     9 1   
@<TRIPOS>SUBSTRUCTURE
     1 HGW         1 TEMP              0 ****  ****    0 ROOT
