@<TRIPOS>MOLECULE
HGW
   10    10     1     0     0
SMALL
No Charge or Current Charge


@<TRIPOS>ATOM
      1 C4          -1.4840     1.2350     0.0160 ca         1 HGW       0.141400
      2 N1          -2.8190    -1.1840    -0.0350 nb         1 HGW      -0.174000
      3 N2          -2.8340     1.2310     0.0000 nb         1 HGW      -0.174000
      4 C3          -3.4330     0.0200    -0.0240 ca         1 HGW       0.133900
      5 C1          -0.7460     0.0370     0.0060 ca         1 HGW       0.067000
      6 C2          -1.4680    -1.1710    -0.0190 ca         1 HGW       0.141400
      7 H1          -0.9920     2.2060     0.0350 h4         1 HGW       0.038100
      8 H2          -4.5220     0.0130    -0.0360 h5         1 HGW       0.056100
      9 H3          -0.9640    -2.1350    -0.0280 h4         1 HGW       0.038100
     10 I1           1.4240     0.0500     0.0310 i          1 HGW      -0.268000
@<TRIPOS>BOND
     1     1     3 ar  
     2     1     5 ar  
     3     1     7 1   
     4     2     4 ar  
     5     2     6 ar  
     6     3     4 ar  
     7     4     8 1   
     8     5     6 ar  
     9     5    10 1   
    10     6     9 1   
@<TRIPOS>SUBSTRUCTURE
     1 HGW         1 TEMP              0 ****  ****    0 ROOT
