@<TRIPOS>MOLECULE
HGY
   10     9     1     0     0
SMALL
No Charge or Current Charge


@<TRIPOS>ATOM
      1 OXT          7.4950    69.2390   105.1090 o          1 HGY      -0.827300
      2 C            7.6040    69.0080   103.9060 c          1 HGY       0.869600
      3 O            8.5950    68.4540   103.4340 o          1 HGY      -0.827300
      4 CA           6.3980    69.4640   102.9160 c3         1 HGY       0.210300
      5 OB           5.1240    69.5200   103.5650 oh         1 HGY      -0.636800
      6 N            6.1100    68.6170   101.7340 n8         1 HGY      -0.910800
      7 HA           6.6440    70.4740   102.5640 h2         1 HGY       0.034700
      8 H3           5.3160    69.7980   104.4900 ho         1 HGY       0.433000
      9 H            6.9930    68.4580   101.2380 hn         1 HGY       0.327800
     10 H2           5.8420    67.6880   102.0700 hn         1 HGY       0.327800
@<TRIPOS>BOND
     1     1     2 1   
     2     2     3 1   
     3     2     4 1   
     4     4     5 1   
     5     4     6 1   
     6     4     7 1   
     7     5     8 1   
     8     6     9 1   
     9     6    10 1   
@<TRIPOS>SUBSTRUCTURE
     1 HGY         1 TEMP              0 ****  ****    0 ROOT
