@<TRIPOS>MOLECULE
HGY
   10     9     1     0     0
SMALL
bcc


@<TRIPOS>ATOM
      1 OXT          7.1290    68.9420   105.0640 o          1 HGY      -0.827300
      2 C            7.4990    69.0290   103.8690 c          1 HGY       0.869600
      3 O            8.6130    68.7630   103.3950 o          1 HGY      -0.827300
      4 CA           6.4030    69.5190   102.8830 c3         1 HGY       0.210300
      5 OB           5.2520    69.8290   103.6100 oh         1 HGY      -0.636800
      6 N            6.0910    68.5560   101.8380 n8         1 HGY      -0.910800
      7 HA           6.7820    70.4140   102.3670 h2         1 HGY       0.034700
      8 H3           5.5110    69.5720   104.5160 ho         1 HGY       0.433000
      9 H            6.9000    68.4580   101.2370 hn         1 HGY       0.327800
     10 H2           5.9410    67.6390   102.2460 hn         1 HGY       0.327800
@<TRIPOS>BOND
     1     1     2 1   
     2     2     3 1   
     3     2     4 1   
     4     4     5 1   
     5     4     6 1   
     6     4     7 1   
     7     5     8 1   
     8     6     9 1   
     9     6    10 1   
@<TRIPOS>SUBSTRUCTURE
     1 HGY         1 TEMP              0 ****  ****    0 ROOT
