@<TRIPOS>MOLECULE
HGZ
   33    34     1     0     0
SMALL
abcg2


@<TRIPOS>ATOM
      1 C1          -0.3770    -1.6510     0.0770 ca         1 HGZ      -0.152000
      2 C2           0.8330    -0.9400     0.0010 ca         1 HGZ      -0.090800
      3 C3           0.8080     0.4550    -0.0520 ca         1 HGZ       0.063600
      4 C4          -0.4210     1.1340    -0.0360 ca         1 HGZ       0.060100
      5 C5          -1.6040     0.4240     0.0390 ca         1 HGZ       0.100100
      6 C6          -1.5850    -0.9880     0.0920 ca         1 HGZ       0.099100
      7 C7           2.1220    -1.5920    -0.0180 cc         1 HGZ       0.016600
      8 C8           3.2450    -0.8410    -0.0920 cd         1 HGZ      -0.293200
      9 C9           3.2280     0.6060    -0.1590 c          1 HGZ       0.560200
     10 N10          1.9800     1.1620    -0.1320 ns         1 HGZ      -0.363100
     11 O11          4.2330     1.3070    -0.2390 o          1 HGZ      -0.556000
     12 C12          2.1980    -3.0840     0.0420 c3         1 HGZ      -0.060900
     13 O13         -0.4190     2.4870    -0.1200 os         1 HGZ      -0.359100
     14 C14         -0.6250     3.1670     1.1190 c3         1 HGZ       0.144900
     15 O15         -2.7840     1.0820     0.0890 os         1 HGZ      -0.347100
     16 C16         -3.3870     1.3160    -1.1810 c3         1 HGZ       0.152900
     17 O17         -2.7910    -1.5760     0.1630 os         1 HGZ      -0.324100
     18 C18         -2.8380    -2.9870     0.2440 c3         1 HGZ       0.143900
     19 H1          -0.3430    -2.7290     0.1200 ha         1 HGZ       0.125000
     20 H8           4.2200    -1.3130    -0.1080 ha         1 HGZ       0.207000
     21 HN10         1.9240     2.1700    -0.1970 hn         1 HGZ       0.340500
     22 H12          1.6790    -3.5380    -0.8040 hc         1 HGZ       0.050367
     23 H12A         3.2310    -3.4250     0.0270 hc         1 HGZ       0.050367
     24 H12B         1.7280    -3.4660     0.9500 hc         1 HGZ       0.050367
     25 H14         -0.5400     4.2310     0.9120 h1         1 HGZ       0.044367
     26 H14A        -1.6150     2.9620     1.5280 h1         1 HGZ       0.044367
     27 H14B         0.1310     2.8880     1.8560 h1         1 HGZ       0.044367
     28 H16         -4.2980     1.8820    -1.0000 h1         1 HGZ       0.040700
     29 H16A        -2.7320     1.8980    -1.8320 h1         1 HGZ       0.040700
     30 H16B        -3.6470     0.3800    -1.6810 h1         1 HGZ       0.040700
     31 H18         -2.4100    -3.4620    -0.6420 h1         1 HGZ       0.042033
     32 H18A        -2.3170    -3.3600     1.1310 h1         1 HGZ       0.042033
     33 H18B        -3.8880    -3.2570     0.3140 h1         1 HGZ       0.042033
@<TRIPOS>BOND
     1     1     2 ar  
     2     1     6 ar  
     3     1    19 1   
     4     2     3 ar  
     5     2     7 1   
     6     3     4 ar  
     7     3    10 1   
     8     4     5 ar  
     9     4    13 1   
    10     5     6 ar  
    11     5    15 1   
    12     6    17 1   
    13     7     8 2   
    14     7    12 1   
    15     8     9 1   
    16     8    20 1   
    17     9    10 1   
    18     9    11 2   
    19    10    21 1   
    20    12    22 1   
    21    12    23 1   
    22    12    24 1   
    23    13    14 1   
    24    14    25 1   
    25    14    26 1   
    26    14    27 1   
    27    15    16 1   
    28    16    28 1   
    29    16    29 1   
    30    16    30 1   
    31    17    18 1   
    32    18    31 1   
    33    18    32 1   
    34    18    33 1   
@<TRIPOS>SUBSTRUCTURE
     1 HGZ         1 TEMP              0 ****  ****    0 ROOT
