@<TRIPOS>MOLECULE
HGZ
   33    34     1     0     0
SMALL
No Charge or Current Charge


@<TRIPOS>ATOM
      1 C1          -0.2750    -1.6250     0.0440 ca         1 HGZ      -0.152000
      2 C2           0.9770    -0.9780     0.0160 ca         1 HGZ      -0.090800
      3 C3           1.0090     0.4230     0.1450 ca         1 HGZ       0.063600
      4 C4          -0.1660     1.1900     0.2880 ca         1 HGZ       0.060100
      5 C5          -1.4290     0.5270     0.2880 ca         1 HGZ       0.100100
      6 C6          -1.4730    -0.8890     0.1850 ca         1 HGZ       0.099100
      7 C7           2.2300    -1.7510    -0.1330 cc         1 HGZ       0.016600
      8 C8           3.4000    -1.0060    -0.1340 cd         1 HGZ      -0.293200
      9 C9           3.4770     0.4600    -0.0000 c          1 HGZ       0.560200
     10 N10          2.2600     1.0560     0.1290 ns         1 HGZ      -0.363100
     11 O11          4.5200     1.0920    -0.0030 o          1 HGZ      -0.556000
     12 C12          2.2540    -3.2530    -0.2780 c3         1 HGZ      -0.060900
     13 O13          0.0160     2.5690     0.4100 os         1 HGZ      -0.359100
     14 C14         -1.0410     3.5250     0.6060 c3         1 HGZ       0.144900
     15 O15         -2.6090     1.2390     0.4170 os         1 HGZ      -0.347100
     16 C16         -3.5840     1.2360    -0.6430 c3         1 HGZ       0.152900
     17 O17         -2.7010    -1.5300     0.2560 os         1 HGZ      -0.324100
     18 C18         -2.8470    -2.9590     0.1730 c3         1 HGZ       0.143900
     19 H1          -0.3100    -2.7060    -0.0380 ha         1 HGZ       0.125000
     20 H8           4.3680    -1.4800    -0.2370 ha         1 HGZ       0.207000
     21 HN10         2.2590     2.0640     0.2240 hn         1 HGZ       0.340500
     22 H12          1.6880    -3.5700    -1.1610 hc         1 HGZ       0.050367
     23 H12A         3.2780    -3.6300    -0.3890 hc         1 HGZ       0.050367
     24 H12B         1.8170    -3.7370     0.6030 hc         1 HGZ       0.050367
     25 H14         -0.6230     4.5350     0.7030 h1         1 HGZ       0.044367
     26 H14A        -1.7300     3.5320    -0.2480 h1         1 HGZ       0.044367
     27 H14B        -1.6040     3.3070     1.5230 h1         1 HGZ       0.044367
     28 H16         -4.4090     1.9160    -0.3990 h1         1 HGZ       0.040700
     29 H16A        -3.1300     1.5740    -1.5830 h1         1 HGZ       0.040700
     30 H16B        -4.0090     0.2380    -0.8030 h1         1 HGZ       0.040700
     31 H18         -2.4670    -3.3350    -0.7860 h1         1 HGZ       0.042033
     32 H18A        -2.3050    -3.4550     0.9880 h1         1 HGZ       0.042033
     33 H18B        -3.9050    -3.2370     0.2510 h1         1 HGZ       0.042033
@<TRIPOS>BOND
     1     1     2 ar  
     2     1     6 ar  
     3     1    19 1   
     4     2     3 ar  
     5     2     7 1   
     6     3     4 ar  
     7     3    10 1   
     8     4     5 ar  
     9     4    13 1   
    10     5     6 ar  
    11     5    15 1   
    12     6    17 1   
    13     7     8 2   
    14     7    12 1   
    15     8     9 1   
    16     8    20 1   
    17     9    10 1   
    18     9    11 2   
    19    10    21 1   
    20    12    22 1   
    21    12    23 1   
    22    12    24 1   
    23    13    14 1   
    24    14    25 1   
    25    14    26 1   
    26    14    27 1   
    27    15    16 1   
    28    16    28 1   
    29    16    29 1   
    30    16    30 1   
    31    17    18 1   
    32    18    31 1   
    33    18    32 1   
    34    18    33 1   
@<TRIPOS>SUBSTRUCTURE
     1 HGZ         1 TEMP              0 ****  ****    0 ROOT
