@<TRIPOS>MOLECULE
HH0
  111   111     1     0     0
SMALL
No Charge or Current Charge


@<TRIPOS>ATOM
      1 CA1        -10.9710    -1.6610    -1.3790 c3         1 HH0      -0.154400
      2 CB1        -11.6630    -0.4500    -2.0620 c3         1 HH0      -0.053700
      3 CZ2        -12.7480    -0.9170    -3.0570 c3         1 HH0      -0.089600
      4 CW1        -10.6490     0.4970    -2.7490 c3         1 HH0      -0.089600
      5 C1         -10.0080    -1.2370    -0.2630 c          1 HH0       0.601100
      6 O1         -10.3970    -0.8260     0.8210 o          1 HH0      -0.623100
      7 N1          -8.6730    -1.3770    -0.5630 ns         1 HH0      -0.494900
      8 CA2         -7.5510    -1.0480     0.3440 c3         1 HH0       0.033700
      9 C2          -6.2790    -0.7380    -0.5030 c          1 HH0       0.595100
     10 O2          -6.1320    -1.1380    -1.6530 o          1 HH0      -0.630100
     11 CB2         -7.3400    -2.1850     1.3970 c3         1 HH0      -0.070700
     12 CG1         -6.9070    -3.5300     0.7620 c3         1 HH0      -0.092600
     13 CG2         -6.3830    -1.7810     2.5440 c3         1 HH0      -0.092600
     14 N3          -5.3330     0.0500     0.1190 ns         1 HH0      -0.478900
     15 CA3         -4.0470     0.4790    -0.4770 c3         1 HH0       0.024700
     16 C3          -2.9280     0.3130     0.5940 c          1 HH0       0.593100
     17 O3          -3.1310     0.4790     1.7930 o          1 HH0      -0.626100
     18 CB3         -4.1440     1.9430    -1.0190 c3         1 HH0      -0.065700
     19 CO2         -2.8080     2.4540    -1.6150 c3         1 HH0      -0.095600
     20 CP1         -5.2880     2.1270    -2.0490 c3         1 HH0      -0.095600
     21 C5           4.3810     0.0130     1.0240 c          1 HH0       0.585100
     22 N5          -1.6890    -0.0590     0.1010 ns         1 HH0      -0.459900
     23 O5           4.3190    -0.9560     1.7730 o          1 HH0      -0.615100
     24 P5           1.1360     0.1270     0.0160 p5         1 HH0       1.377400
     25 CZ           0.9920     5.6440     2.0120 ca         1 HH0      -0.118000
     26 O11          0.8910     1.1790    -1.0170 o          1 HH0      -0.811000
     27 O21          1.7550    -1.1030    -0.5650 o          1 HH0      -0.811000
     28 CA4         -0.4600    -0.2750     0.9210 c3         1 HH0      -0.223300
     29 CA5          3.3360     1.1760     1.0270 c3         1 HH0       0.173300
     30 OA5          1.9910     0.7060     1.2540 os         1 HH0      -0.571400
     31 CB4         -0.4970    -1.6790     1.5930 c3         1 HH0      -0.054400
     32 CB5          3.6470     2.2050     2.1380 c3         1 HH0      -0.032100
     33 CE2          0.6870     4.5500     2.8400 ca         1 HH0      -0.114500
     34 CG4          0.5650    -1.9450     2.7000 c3         1 HH0      -0.059700
     35 CG5          2.7180     3.4140     2.0990 ca         1 HH0      -0.057300
     36 CJ2          1.5480     3.4400     2.8840 ca         1 HH0      -0.092500
     37 CN1          0.5060    -3.4160     3.1720 c3         1 HH0      -0.079100
     38 CM2          0.4330    -0.9820     3.9050 c3         1 HH0      -0.079100
     39 CU1          3.0170     4.5130     1.2700 ca         1 HH0      -0.092500
     40 CV1          2.1570     5.6250     1.2270 ca         1 HH0      -0.114500
     41 N6           5.3780     0.1260     0.0730 ns         1 HH0      -0.480900
     42 CA6          6.4550    -0.8630    -0.1540 c3         1 HH0       0.041700
     43 C6           7.6530    -0.1980    -0.8940 c          1 HH0       0.596100
     44 O6           7.6000     0.9290    -1.3720 o          1 HH0      -0.608100
     45 CB6          5.9120    -2.0940    -0.9200 c3         1 HH0      -0.111100
     46 N7           8.7940    -0.9690    -0.9800 ns         1 HH0      -0.507900
     47 CA7         10.0600    -0.5440    -1.6200 c3         1 HH0       0.059700
     48 C7          10.9130    -1.7760    -2.0280 c          1 HH0       0.580100
     49 O7          10.6970    -2.9200    -1.6410 o          1 HH0      -0.488000
     50 CB7         10.8500     0.4260    -0.7130 c3         1 HH0      -0.105100
     51 O77         11.8930    -1.4420    -2.9290 os         1 HH0      -0.440100
     52 C99         12.7520    -2.4890    -3.4170 c3         1 HH0       0.151900
     53 HA1        -10.4300    -2.2320    -2.1440 hc         1 HH0       0.056200
     54 HA1A       -11.7460    -2.2950    -0.9330 hc         1 HH0       0.056200
     55 HB1        -12.1720     0.1280    -1.2790 hc         1 HH0       0.064700
     56 HZ2        -13.4960    -1.5400    -2.5530 hc         1 HH0       0.033533
     57 HZ2A       -13.2680    -0.0570    -3.4970 hc         1 HH0       0.033533
     58 HZ2B       -12.3060    -1.5030    -3.8720 hc         1 HH0       0.033533
     59 HW1         -9.9380     0.9100    -2.0230 hc         1 HH0       0.033533
     60 HW1A       -10.0820    -0.0330    -3.5240 hc         1 HH0       0.033533
     61 HW1B       -11.1680     1.3400    -3.2210 hc         1 HH0       0.033533
     62 HN1         -8.4470    -1.7110    -1.4940 hn         1 HH0       0.337500
     63 HA2         -7.8100    -0.1220     0.8750 h1         1 HH0       0.078700
     64 HB2         -8.3140    -2.3610     1.8700 hc         1 HH0       0.055700
     65 HG1         -5.9220    -3.4460     0.2890 hc         1 HH0       0.040533
     66 HG1A        -6.8500    -4.3150     1.5260 hc         1 HH0       0.040533
     67 HG1B        -7.6270    -3.8580     0.0020 hc         1 HH0       0.040533
     68 HG2         -5.3460    -1.7080     2.1950 hc         1 HH0       0.040533
     69 HG2A        -6.6760    -0.8170     2.9770 hc         1 HH0       0.040533
     70 HG2B        -6.4110    -2.5300     3.3450 hc         1 HH0       0.040533
     71 HN3         -5.5210     0.3190     1.0790 hn         1 HH0       0.327500
     72 HA3         -3.7990    -0.1930    -1.3090 h1         1 HH0       0.081700
     73 HB3         -4.3780     2.5920    -0.1650 hc         1 HH0       0.063700
     74 HO2         -2.4650     1.7990    -2.4250 hc         1 HH0       0.039867
     75 HO2A        -2.9260     3.4650    -2.0210 hc         1 HH0       0.039867
     76 HO2B        -2.0240     2.5030    -0.8500 hc         1 HH0       0.039867
     77 HP1         -6.2670     1.9220    -1.6000 hc         1 HH0       0.039867
     78 HP1A        -5.3120     3.1570    -2.4240 hc         1 HH0       0.039867
     79 HP1B        -5.1530     1.4550    -2.9060 hc         1 HH0       0.039867
     80 HN5         -1.6160    -0.1480    -0.9080 hn         1 HH0       0.311500
     81 HA4         -0.4670     0.4890     1.7050 h1         1 HH0       0.088700
     82 HA5          3.4040     1.6880     0.0580 h1         1 HH0       0.043700
     83 HB4         -1.4900    -1.8350     2.0340 hc         1 HH0       0.029700
     84 HB4A        -0.3940    -2.4390     0.8090 hc         1 HH0       0.029700
     85 HB5          3.5860     1.7080     3.1140 hc         1 HH0       0.050700
     86 HB5A         4.6870     2.5350     2.0330 hc         1 HH0       0.050700
     87 HG4          1.5620    -1.7970     2.2670 hc         1 HH0       0.088700
     88 HJ2          1.3020     2.5950     3.5230 ha         1 HH0       0.111500
     89 HN1A         0.6570    -4.1010     2.3290 hc         1 HH0       0.022700
     90 HN1B         1.2880    -3.6170     3.9140 hc         1 HH0       0.022700
     91 HN1C        -0.4660    -3.6420     3.6280 hc         1 HH0       0.022700
     92 HM2         -0.5670    -1.0500     4.3510 hc         1 HH0       0.022700
     93 HM2A         1.1700    -1.2300     4.6790 hc         1 HH0       0.022700
     94 HM2B         0.6070     0.0570     3.6080 hc         1 HH0       0.022700
     95 HU1          3.9160     4.5060     0.6560 ha         1 HH0       0.111500
     96 HV1          2.3930     6.4700     0.5850 ha         1 HH0       0.100500
     97 HN6          5.3750     0.9600    -0.5060 hn         1 HH0       0.335500
     98 HA6          6.8320    -1.1950     0.8220 h1         1 HH0       0.072700
     99 HB6          6.6940    -2.8510    -1.0530 hc         1 HH0       0.057367
    100 HB6A         5.0850    -2.5610    -0.3730 hc         1 HH0       0.057367
    101 HB6B         5.5450    -1.8020    -1.9110 hc         1 HH0       0.057367
    102 HN7          8.7530    -1.8970    -0.5710 hn         1 HH0       0.335500
    103 HA7          9.8180    -0.0210    -2.5550 h1         1 HH0       0.101700
    104 HB7         11.1270    -0.0630     0.2290 hc         1 HH0       0.049700
    105 HB7A        11.7690     0.7600    -1.2100 hc         1 HH0       0.049700
    106 HB7B        10.2530     1.3150    -0.4770 hc         1 HH0       0.049700
    107 H99         13.4870    -2.0830    -4.1230 h1         1 HH0       0.047367
    108 H99A        13.2990    -2.9630    -2.5910 h1         1 HH0       0.047367
    109 H99B        12.1710    -3.2620    -3.9380 h1         1 HH0       0.047367
    110 HZ           0.3260     6.5030     1.9780 ha         1 HH0       0.097000
    111 HE2         -0.2150     4.5620     3.4470 ha         1 HH0       0.100500
@<TRIPOS>BOND
     1     1     2 1   
     2     1     5 1   
     3     1    53 1   
     4     1    54 1   
     5     2     3 1   
     6     2     4 1   
     7     2    55 1   
     8     3    56 1   
     9     3    57 1   
    10     3    58 1   
    11     4    59 1   
    12     4    60 1   
    13     4    61 1   
    14     5     6 2   
    15     5     7 1   
    16     7     8 1   
    17     7    62 1   
    18     8     9 1   
    19     8    11 1   
    20     8    63 1   
    21     9    10 2   
    22     9    14 1   
    23    11    12 1   
    24    11    13 1   
    25    11    64 1   
    26    12    65 1   
    27    12    66 1   
    28    12    67 1   
    29    13    68 1   
    30    13    69 1   
    31    13    70 1   
    32    14    15 1   
    33    14    71 1   
    34    15    16 1   
    35    15    18 1   
    36    15    72 1   
    37    16    17 2   
    38    16    22 1   
    39    18    19 1   
    40    18    20 1   
    41    18    73 1   
    42    19    74 1   
    43    19    75 1   
    44    19    76 1   
    45    20    77 1   
    46    20    78 1   
    47    20    79 1   
    48    21    23 2   
    49    21    29 1   
    50    21    41 1   
    51    22    28 1   
    52    22    80 1   
    53    24    26 1   
    54    24    27 1   
    55    24    28 1   
    56    24    30 1   
    57    25    33 ar  
    58    25    40 ar  
    59    25   110 1   
    60    28    31 1   
    61    28    81 1   
    62    29    30 1   
    63    29    32 1   
    64    29    82 1   
    65    31    34 1   
    66    31    83 1   
    67    31    84 1   
    68    32    35 1   
    69    32    85 1   
    70    32    86 1   
    71    33    36 ar  
    72    33   111 1   
    73    34    37 1   
    74    34    38 1   
    75    34    87 1   
    76    35    36 ar  
    77    35    39 ar  
    78    36    88 1   
    79    37    89 1   
    80    37    90 1   
    81    37    91 1   
    82    38    92 1   
    83    38    93 1   
    84    38    94 1   
    85    39    40 ar  
    86    39    95 1   
    87    40    96 1   
    88    41    42 1   
    89    41    97 1   
    90    42    43 1   
    91    42    45 1   
    92    42    98 1   
    93    43    44 2   
    94    43    46 1   
    95    45    99 1   
    96    45   100 1   
    97    45   101 1   
    98    46    47 1   
    99    46   102 1   
   100    47    48 1   
   101    47    50 1   
   102    47   103 1   
   103    48    49 2   
   104    48    51 1   
   105    50   104 1   
   106    50   105 1   
   107    50   106 1   
   108    51    52 1   
   109    52   107 1   
   110    52   108 1   
   111    52   109 1   
@<TRIPOS>SUBSTRUCTURE
     1 HH0         1 TEMP              0 ****  ****    0 ROOT
