@<TRIPOS>MOLECULE
HH0
  111   111     1     0     0
SMALL
abcg2


@<TRIPOS>ATOM
      1 CA1        -10.0500    -2.2530    -1.2400 c3         1 HH0      -0.154400
      2 CB1        -10.9690    -1.5160    -2.2190 c3         1 HH0      -0.053700
      3 CZ2        -11.8410    -2.5150    -2.9720 c3         1 HH0      -0.089600
      4 CW1        -10.1690    -0.6570    -3.1930 c3         1 HH0      -0.089600
      5 C1          -9.2550    -1.2940    -0.3820 c          1 HH0       0.601100
      6 O1          -9.8030    -0.4650     0.3340 o          1 HH0      -0.623100
      7 N1          -7.9200    -1.4060    -0.4740 ns         1 HH0      -0.494900
      8 CA2         -6.9980    -0.5580     0.2400 c3         1 HH0       0.033700
      9 C2          -5.7210    -0.4700    -0.5890 c          1 HH0       0.595100
     10 O2          -5.3780    -1.3890    -1.3190 o          1 HH0      -0.630100
     11 CB2         -6.7240    -1.0800     1.6720 c3         1 HH0      -0.070700
     12 CG1         -5.9970    -2.4200     1.6870 c3         1 HH0      -0.092600
     13 CG2         -6.0030    -0.0540     2.5390 c3         1 HH0      -0.092600
     14 N3          -5.0190     0.6610    -0.4360 ns         1 HH0      -0.478900
     15 CA3         -3.7200     0.8930    -1.0280 c3         1 HH0       0.024700
     16 C3          -2.6970     0.9290     0.1070 c          1 HH0       0.593100
     17 O3          -2.8410     1.7100     1.0380 o          1 HH0      -0.626100
     18 CB3         -3.6840     2.1920    -1.8460 c3         1 HH0      -0.065700
     19 CO2         -2.3200     2.3630    -2.5080 c3         1 HH0      -0.095600
     20 CP1         -4.7920     2.2060    -2.8930 c3         1 HH0      -0.095600
     21 C5           3.9390     0.0600     1.1150 c          1 HH0       0.585100
     22 N5          -1.7040     0.0420     0.0110 ns         1 HH0      -0.459900
     23 O5           3.9470    -0.9620     1.7830 o          1 HH0      -0.615100
     24 P5           0.8560     0.7480     0.2470 p5         1 HH0       1.377400
     25 CZ           1.4890     5.3610     4.0340 ca         1 HH0      -0.118000
     26 O11          0.4620     2.1190    -0.2310 o          1 HH0      -0.811000
     27 O21          1.5800    -0.1800    -0.6920 o          1 HH0      -0.811000
     28 CA4         -0.6250    -0.0940     0.9740 c3         1 HH0      -0.223300
     29 CA5          3.0910     1.2680     1.5170 c3         1 HH0       0.173300
     30 OA5          1.7440     0.9050     1.6390 os         1 HH0      -0.571400
     31 CB4         -0.4540    -1.5790     1.2980 c3         1 HH0      -0.054400
     32 CB5          3.5750     1.7820     2.8740 c3         1 HH0      -0.032100
     33 CE2          0.9690     4.1130     4.3570 ca         1 HH0      -0.114500
     34 CG4          0.4880    -1.9390     2.4450 c3         1 HH0      -0.059700
     35 CG5          2.8520     3.0280     3.2970 ca         1 HH0      -0.057300
     36 CJ2          1.6450     2.9580     3.9870 ca         1 HH0      -0.092500
     37 CN1          0.5300    -3.4580     2.5940 c3         1 HH0      -0.079100
     38 CM2          0.0620    -1.2930     3.7600 c3         1 HH0      -0.079100
     39 CU1          3.3650     4.2840     2.9800 ca         1 HH0      -0.092500
     40 CV1          2.6920     5.4430     3.3450 ca         1 HH0      -0.114500
     41 N6           4.7270     0.2460     0.0430 ns         1 HH0      -0.480900
     42 CA6          5.4920    -0.8330    -0.5310 c3         1 HH0       0.041700
     43 C6           6.6710    -0.2420    -1.2920 c          1 HH0       0.596100
     44 O6           6.5740     0.8130    -1.9020 o          1 HH0      -0.608100
     45 CB6          4.6510    -1.6920    -1.4780 c3         1 HH0      -0.111100
     46 N7           7.7770    -0.9980    -1.2830 ns         1 HH0      -0.507900
     47 CA7          8.9790    -0.6430    -1.9970 c3         1 HH0       0.059700
     48 C7           9.7060    -1.9180    -2.3810 c          1 HH0       0.580100
     49 O7           9.4180    -3.0170    -1.9810 o          1 HH0      -0.488000
     50 CB7          9.8870     0.2750    -1.1740 c3         1 HH0      -0.105100
     51 O77         10.7140    -1.6630    -3.1930 os         1 HH0      -0.440100
     52 C99         11.5270    -2.7630    -3.6110 c3         1 HH0       0.151900
     53 HA1         -9.3930    -2.9330    -1.7910 hc         1 HH0       0.056200
     54 HA1A       -10.6520    -2.8720    -0.5690 hc         1 HH0       0.056200
     55 HB1        -11.6250    -0.8630    -1.6350 hc         1 HH0       0.064700
     56 HZ2        -12.4330    -3.1250    -2.2890 hc         1 HH0       0.033533
     57 HZ2A       -12.5300    -2.0030    -3.6450 hc         1 HH0       0.033533
     58 HZ2B       -11.2300    -3.1900    -3.5760 hc         1 HH0       0.033533
     59 HW1         -9.5640     0.0950    -2.6830 hc         1 HH0       0.033533
     60 HW1A        -9.4950    -1.2730    -3.7930 hc         1 HH0       0.033533
     61 HW1B       -10.8320    -0.1280    -3.8790 hc         1 HH0       0.033533
     62 HN1         -7.5210    -2.0970    -1.0900 hn         1 HH0       0.337500
     63 HA2         -7.4470     0.4360     0.3290 h1         1 HH0       0.078700
     64 HB2         -7.7180    -1.2290     2.1040 hc         1 HH0       0.055700
     65 HG1         -4.9610    -2.3230     1.3560 hc         1 HH0       0.040533
     66 HG1A        -5.9770    -2.8190     2.7010 hc         1 HH0       0.040533
     67 HG1B        -6.4860    -3.1600     1.0530 hc         1 HH0       0.040533
     68 HG2         -4.9690     0.1020     2.2280 hc         1 HH0       0.040533
     69 HG2A        -6.5080     0.9150     2.5240 hc         1 HH0       0.040533
     70 HG2B        -5.9810    -0.3920     3.5750 hc         1 HH0       0.040533
     71 HN3         -5.3780     1.3770     0.1780 hn         1 HH0       0.327500
     72 HA3         -3.5240     0.0570    -1.7030 h1         1 HH0       0.081700
     73 HB3         -3.8430     3.0280    -1.1550 hc         1 HH0       0.063700
     74 HO2         -2.1420     1.5650    -3.2340 hc         1 HH0       0.039867
     75 HO2A        -2.2820     3.3090    -3.0500 hc         1 HH0       0.039867
     76 HO2B        -1.4940     2.3540    -1.7960 hc         1 HH0       0.039867
     77 HP1         -5.7850     2.1810    -2.4460 hc         1 HH0       0.039867
     78 HP1A        -4.7280     3.1110    -3.4990 hc         1 HH0       0.039867
     79 HP1B        -4.7030     1.3500    -3.5650 hc         1 HH0       0.039867
     80 HN5         -1.6760    -0.5570    -0.7990 hn         1 HH0       0.311500
     81 HA4         -0.9300     0.4570     1.8650 h1         1 HH0       0.088700
     82 HA5          3.2180     2.0730     0.7790 h1         1 HH0       0.043700
     83 HB4         -1.4490    -1.9760     1.5360 hc         1 HH0       0.029700
     84 HB4A        -0.1220    -2.0960     0.3910 hc         1 HH0       0.029700
     85 HB5          3.4370     0.9880     3.6110 hc         1 HH0       0.050700
     86 HB5A         4.6480     1.9780     2.8080 hc         1 HH0       0.050700
     87 HG4          1.4940    -1.5960     2.2010 hc         1 HH0       0.088700
     88 HJ2          1.2310     1.9910     4.2440 ha         1 HH0       0.111500
     89 HN1A         0.8400    -3.9420     1.6660 hc         1 HH0       0.022700
     90 HN1B         1.2320    -3.7580     3.3750 hc         1 HH0       0.022700
     91 HN1C        -0.4520    -3.8560     2.8620 hc         1 HH0       0.022700
     92 HM2         -0.9740    -1.5460     4.0030 hc         1 HH0       0.022700
     93 HM2A         0.6870    -1.6400     4.5850 hc         1 HH0       0.022700
     94 HM2B         0.1460    -0.2070     3.7260 hc         1 HH0       0.022700
     95 HU1          4.3060     4.3570     2.4460 ha         1 HH0       0.111500
     96 HV1          3.1100     6.4100     3.0950 ha         1 HH0       0.100500
     97 HN6          4.5610     1.0450    -0.5490 hn         1 HH0       0.335500
     98 HA6          5.8560    -1.4560     0.2880 h1         1 HH0       0.072700
     99 HB6          5.2160    -2.5570    -1.8260 hc         1 HH0       0.057367
    100 HB6A         3.7580    -2.0400    -0.9620 hc         1 HH0       0.057367
    101 HB6B         4.3320    -1.1140    -2.3450 hc         1 HH0       0.057367
    102 HN7          7.8040    -1.8230    -0.7040 hn         1 HH0       0.335500
    103 HA7          8.6950    -0.1280    -2.9180 h1         1 HH0       0.101700
    104 HB7         10.1900    -0.2100    -0.2460 hc         1 HH0       0.049700
    105 HB7A        10.7800     0.5550    -1.7290 hc         1 HH0       0.049700
    106 HB7B         9.3480     1.1870    -0.9240 hc         1 HH0       0.049700
    107 H99         12.2910    -2.3390    -4.2540 h1         1 HH0       0.047367
    108 H99A        11.9980    -3.2520    -2.7590 h1         1 HH0       0.047367
    109 H99B        10.9440    -3.4930    -4.1710 h1         1 HH0       0.047367
    110 HZ           0.9640     6.2620     4.3210 ha         1 HH0       0.097000
    111 HE2          0.0350     4.0400     4.8980 ha         1 HH0       0.100500
@<TRIPOS>BOND
     1     1     2 1   
     2     1     5 1   
     3     1    53 1   
     4     1    54 1   
     5     2     3 1   
     6     2     4 1   
     7     2    55 1   
     8     3    56 1   
     9     3    57 1   
    10     3    58 1   
    11     4    59 1   
    12     4    60 1   
    13     4    61 1   
    14     5     6 2   
    15     5     7 1   
    16     7     8 1   
    17     7    62 1   
    18     8     9 1   
    19     8    11 1   
    20     8    63 1   
    21     9    10 2   
    22     9    14 1   
    23    11    12 1   
    24    11    13 1   
    25    11    64 1   
    26    12    65 1   
    27    12    66 1   
    28    12    67 1   
    29    13    68 1   
    30    13    69 1   
    31    13    70 1   
    32    14    15 1   
    33    14    71 1   
    34    15    16 1   
    35    15    18 1   
    36    15    72 1   
    37    16    17 2   
    38    16    22 1   
    39    18    19 1   
    40    18    20 1   
    41    18    73 1   
    42    19    74 1   
    43    19    75 1   
    44    19    76 1   
    45    20    77 1   
    46    20    78 1   
    47    20    79 1   
    48    21    23 2   
    49    21    29 1   
    50    21    41 1   
    51    22    28 1   
    52    22    80 1   
    53    24    26 1   
    54    24    27 1   
    55    24    28 1   
    56    24    30 1   
    57    25    33 ar  
    58    25    40 ar  
    59    25   110 1   
    60    28    31 1   
    61    28    81 1   
    62    29    30 1   
    63    29    32 1   
    64    29    82 1   
    65    31    34 1   
    66    31    83 1   
    67    31    84 1   
    68    32    35 1   
    69    32    85 1   
    70    32    86 1   
    71    33    36 ar  
    72    33   111 1   
    73    34    37 1   
    74    34    38 1   
    75    34    87 1   
    76    35    36 ar  
    77    35    39 ar  
    78    36    88 1   
    79    37    89 1   
    80    37    90 1   
    81    37    91 1   
    82    38    92 1   
    83    38    93 1   
    84    38    94 1   
    85    39    40 ar  
    86    39    95 1   
    87    40    96 1   
    88    41    42 1   
    89    41    97 1   
    90    42    43 1   
    91    42    45 1   
    92    42    98 1   
    93    43    44 2   
    94    43    46 1   
    95    45    99 1   
    96    45   100 1   
    97    45   101 1   
    98    46    47 1   
    99    46   102 1   
   100    47    48 1   
   101    47    50 1   
   102    47   103 1   
   103    48    49 2   
   104    48    51 1   
   105    50   104 1   
   106    50   105 1   
   107    50   106 1   
   108    51    52 1   
   109    52   107 1   
   110    52   108 1   
   111    52   109 1   
@<TRIPOS>SUBSTRUCTURE
     1 HH0         1 TEMP              0 ****  ****    0 ROOT
