@<TRIPOS>MOLECULE
HH1
   87    92     1     0     0
SMALL
No Charge or Current Charge


@<TRIPOS>ATOM
      1 O01         -5.0530    -1.5860    -0.1940 os         1 HH1      -0.464100
      2 C02         -3.8420    -1.0520    -0.5280 c          1 HH1       0.639100
      3 O03         -3.4030    -0.8940    -1.6570 o          1 HH1      -0.533000
      4 NP4         -3.2370    -0.6230     0.6180 ns         1 HH1      -0.495900
      5 C05         -2.0660     0.2690     0.6560 c3         1 HH1       0.086700
      6 C06         -0.8060    -0.4080     1.2750 c3         1 HH1       0.163300
      7 O07         -1.0870    -0.8320     2.6210 oh         1 HH1      -0.657000
      8 C08         -0.3220    -1.6370     0.4520 c3         1 HH1      -0.114400
      9 C09          1.1730    -2.0430     0.6420 c5         1 HH1       0.107200
     10 C10          1.4520    -3.3600    -0.1450 c3         1 HH1      -0.013100
     11 C11          2.9260    -3.7520    -0.2680 ca         1 HH1      -0.086300
     12 C12          3.6160    -3.5410    -1.4790 ca         1 HH1      -0.094500
     13 C13          4.9670    -3.9120    -1.6020 ca         1 HH1      -0.113000
     14 C14          5.6390    -4.4910    -0.5130 ca         1 HH1      -0.109000
     15 C15          4.9580    -4.7030     0.6970 ca         1 HH1      -0.113000
     16 C16          3.6050    -4.3380     0.8180 ca         1 HH1      -0.094500
     17 C17          2.1140    -0.9120     0.1140 c          1 HH1       0.592300
     18 O18          2.1750    -0.3930    -0.9970 o          1 HH1      -0.540100
     19 C19          3.9360     0.5170     1.2440 c5         1 HH1       0.077800
     20 C20          3.1560     1.8840     1.0910 c5         1 HH1      -0.075400
     21 C22          4.1350     2.8310     0.2880 c5         1 HH1      -0.010400
     22 C23          4.9120     1.8110    -0.5170 ca         1 HH1      -0.085300
     23 C24          5.6980     2.0420    -1.6610 ca         1 HH1      -0.099000
     24 C25          6.3770     0.9590    -2.2540 ca         1 HH1      -0.115000
     25 C26          6.2760    -0.3340    -1.6970 ca         1 HH1      -0.113000
     26 C27          5.4920    -0.5460    -0.5470 ca         1 HH1      -0.087000
     27 C28          4.8110     0.5420     0.0210 ca         1 HH1      -0.074300
     28 N29          1.4610    -2.2280     2.1070 nu         1 HH1      -0.802200
     29 C30          2.4920    -1.3260     2.3940 c2         1 HH1       0.115000
     30 C35          2.8730    -0.5860     1.3460 ce         1 HH1      -0.349400
     31 C36         -2.4470     1.6120     1.3290 c3         1 HH1      -0.049100
     32 C37         -3.6680     2.2520     0.6730 ca         1 HH1      -0.091300
     33 C38         -3.5510     2.8740    -0.5860 ca         1 HH1      -0.105000
     34 C39         -4.6810     3.4260    -1.2130 ca         1 HH1      -0.104500
     35 C40         -5.9360     3.3600    -0.5860 ca         1 HH1      -0.109000
     36 C41         -6.0600     2.7420     0.6690 ca         1 HH1      -0.104500
     37 C42         -4.9300     2.1900     1.2970 ca         1 HH1      -0.105000
     38 C44         -5.9260    -1.8610    -1.3230 c5         1 HH1       0.161300
     39 C45         -6.4740    -0.5000    -1.8910 c5         1 HH1       0.127600
     40 O46         -7.8890    -0.4910    -1.5880 os         1 HH1      -0.462000
     41 C47         -8.0690    -1.3060    -0.4180 c5         1 HH1       0.157600
     42 C48         -7.1990    -2.5390    -0.7450 c5         1 HH1      -0.119400
     43 N1           1.2400     4.6770     0.2400 nt         1 HH1      -0.609000
     44 O2           3.0410     5.7220     1.0380 o          1 HH1      -0.613100
     45 HP4         -3.7780    -0.7580     1.4610 hn         1 HH1       0.314500
     46 H05         -1.8010     0.5200    -0.3810 h1         1 HH1       0.094700
     47 H06         -0.0030     0.3430     1.2760 h1         1 HH1       0.092700
     48 H07         -1.9170    -1.3530     2.5860 ho         1 HH1       0.435000
     49 H081        -0.4830    -1.4200    -0.6110 hc         1 HH1       0.068200
     50 H082        -0.9750    -2.4910     0.6740 hc         1 HH1       0.068200
     51 H101         0.8980    -4.1850     0.3200 hc         1 HH1       0.057700
     52 H102         1.0290    -3.2690    -1.1530 hc         1 HH1       0.057700
     53 H12          3.1080    -3.0890    -2.3280 ha         1 HH1       0.114000
     54 H13          5.4920    -3.7460    -2.5400 ha         1 HH1       0.112500
     55 H14          6.6850    -4.7750    -0.6070 ha         1 HH1       0.112000
     56 H15          5.4760    -5.1520     1.5420 ha         1 HH1       0.112500
     57 H16          3.0850    -4.5090     1.7570 ha         1 HH1       0.114000
     58 H19          4.5580     0.5320     2.1460 hc         1 HH1       0.053700
     59 H201         2.8760     2.3050     2.0630 hc         1 HH1       0.052200
     60 H202         2.2220     1.7590     0.5330 hc         1 HH1       0.052200
     61 H22          4.8120     3.3420     0.9840 hc         1 HH1       0.077700
     62 H24          5.7890     3.0400    -2.0830 ha         1 HH1       0.110000
     63 H25          6.9870     1.1210    -3.1400 ha         1 HH1       0.108000
     64 H26          6.8060    -1.1660    -2.1530 ha         1 HH1       0.107000
     65 H27          5.4120    -1.5350    -0.1040 ha         1 HH1       0.122000
     66 H29          0.6630    -2.1920     2.7520 hn         1 HH1       0.501000
     67 H30          2.8860    -1.2600     3.4150 h4         1 HH1       0.206000
     68 H361        -2.6340     1.4450     2.3970 hc         1 HH1       0.061200
     69 H362        -1.5920     2.2970     1.2730 hc         1 HH1       0.061200
     70 H38         -2.5840     2.9220    -1.0830 ha         1 HH1       0.107500
     71 H39         -4.5840     3.9030    -2.1870 ha         1 HH1       0.117500
     72 H40         -6.8120     3.7850    -1.0730 ha         1 HH1       0.115000
     73 H41         -7.0330     2.6860     1.1540 ha         1 HH1       0.117500
     74 H42         -5.0390     1.7050     2.2640 ha         1 HH1       0.107500
     75 H44         -5.4120    -2.4840    -2.0690 h1         1 HH1       0.082700
     76 H451        -6.0010     0.3680    -1.4110 h1         1 HH1       0.065200
     77 H452        -6.3340    -0.4160    -2.9770 h1         1 HH1       0.065200
     78 H471        -9.1310    -1.5490    -0.2810 h1         1 HH1       0.048200
     79 H472        -7.7040    -0.7620     0.4650 h1         1 HH1       0.048200
     80 H481        -7.6860    -3.1740    -1.4930 hc         1 HH1       0.068700
     81 H482        -6.9960    -3.1590     0.1350 hc         1 HH1       0.068700
     82 HN11         0.6310     5.2680     0.7860 hn         1 HH1       0.312500
     83 HN12         0.8580     3.9690    -0.3680 hn         1 HH1       0.312500
     84 C49          3.4360     3.9330    -0.5500 c3         1 HH1      -0.151400
     85 C1           2.5760     4.8540     0.3190 c          1 HH1       0.603100
     86 H491         2.8080     3.4510    -1.3090 hc         1 HH1       0.063200
     87 H492         4.1990     4.5460    -1.0440 hc         1 HH1       0.063200
@<TRIPOS>BOND
     1     1     2 1   
     2     1    38 1   
     3     2     3 2   
     4     2     4 1   
     5     4     5 1   
     6     4    45 1   
     7     5     6 1   
     8     5    31 1   
     9     5    46 1   
    10     6     7 1   
    11     6     8 1   
    12     6    47 1   
    13     7    48 1   
    14     8     9 1   
    15     8    49 1   
    16     8    50 1   
    17     9    10 1   
    18     9    17 1   
    19     9    28 1   
    20    10    11 1   
    21    10    51 1   
    22    10    52 1   
    23    11    12 ar  
    24    11    16 ar  
    25    12    13 ar  
    26    12    53 1   
    27    13    14 ar  
    28    13    54 1   
    29    14    15 ar  
    30    14    55 1   
    31    15    16 ar  
    32    15    56 1   
    33    16    57 1   
    34    17    18 2   
    35    17    30 1   
    36    19    20 1   
    37    19    27 1   
    38    19    30 1   
    39    19    58 1   
    40    20    21 1   
    41    20    59 1   
    42    20    60 1   
    43    21    22 1   
    44    21    61 1   
    45    21    84 1   
    46    22    23 ar  
    47    22    27 ar  
    48    23    24 ar  
    49    23    62 1   
    50    24    25 ar  
    51    24    63 1   
    52    25    26 ar  
    53    25    64 1   
    54    26    27 ar  
    55    26    65 1   
    56    28    29 1   
    57    28    66 1   
    58    29    30 2   
    59    29    67 1   
    60    31    32 1   
    61    31    68 1   
    62    31    69 1   
    63    32    33 ar  
    64    32    37 ar  
    65    33    34 ar  
    66    33    70 1   
    67    34    35 ar  
    68    34    71 1   
    69    35    36 ar  
    70    35    72 1   
    71    36    37 ar  
    72    36    73 1   
    73    37    74 1   
    74    38    39 1   
    75    38    42 1   
    76    38    75 1   
    77    39    40 1   
    78    39    76 1   
    79    39    77 1   
    80    40    41 1   
    81    41    42 1   
    82    41    78 1   
    83    41    79 1   
    84    42    80 1   
    85    42    81 1   
    86    43    82 1   
    87    43    83 1   
    88    43    85 1   
    89    44    85 2   
    90    84    85 1   
    91    84    86 1   
    92    84    87 1   
@<TRIPOS>SUBSTRUCTURE
     1 HH1         1 TEMP              0 ****  ****    0 ROOT
