@<TRIPOS>MOLECULE
HH1
   87    92     1     0     0
SMALL
bcc


@<TRIPOS>ATOM
      1 O01         -5.1880    -1.6490    -0.0300 os         1 HH1      -0.440900
      2 C02         -4.1290    -0.9830    -0.5030 c          1 HH1       0.755100
      3 O03         -3.9480    -0.7430    -1.6780 o          1 HH1      -0.582000
      4 NP4         -3.2930    -0.6530     0.5040 ns         1 HH1      -0.562900
      5 C05         -2.2390     0.3270     0.3560 c3         1 HH1       0.086700
      6 C06         -0.9090    -0.2050     0.9060 c3         1 HH1       0.140100
      7 O07         -0.9730    -0.4260     2.2980 oh         1 HH1      -0.594800
      8 C08         -0.4640    -1.4400     0.1220 c3         1 HH1      -0.114400
      9 C09          0.9950    -1.8800     0.2940 c5         1 HH1       0.107200
     10 C10          1.2620    -3.1090    -0.5930 c3         1 HH1      -0.013100
     11 C11          2.6970    -3.5530    -0.6320 ca         1 HH1      -0.086300
     12 C12          3.4970    -3.2520    -1.7330 ca         1 HH1      -0.112500
     13 C13          4.8210    -3.6640    -1.7920 ca         1 HH1      -0.131000
     14 C14          5.3730    -4.3810    -0.7400 ca         1 HH1      -0.127000
     15 C15          4.5880    -4.6880     0.3640 ca         1 HH1      -0.131000
     16 C16          3.2610    -4.2830     0.4140 ca         1 HH1      -0.112500
     17 C17          1.9460    -0.7250    -0.0670 c          1 HH1       0.592300
     18 O18          2.0020    -0.2390    -1.1880 o          1 HH1      -0.540100
     19 C19          3.7020     0.6770     1.2640 c5         1 HH1       0.077800
     20 C20          3.2510     2.1110     0.9220 c5         1 HH1      -0.075400
     21 C22          4.5420     2.8550     0.5400 c5         1 HH1      -0.010400
     22 C23          5.3890     1.7490    -0.0380 ca         1 HH1      -0.085300
     23 C24          6.5120     1.8300    -0.8470 ca         1 HH1      -0.117000
     24 C25          7.1390     0.6540    -1.2530 ca         1 HH1      -0.133000
     25 C26          6.6440    -0.5830    -0.8530 ca         1 HH1      -0.131000
     26 C27          5.5200    -0.6620    -0.0360 ca         1 HH1      -0.105000
     27 C28          4.9040     0.5090     0.3650 ca         1 HH1      -0.074300
     28 N29          1.3450    -2.1400     1.6720 nu         1 HH1      -0.747000
     29 C30          2.2330    -1.2390     2.0990 c2         1 HH1       0.165000
     30 C35          2.6630    -0.3780     1.1250 ce         1 HH1      -0.349400
     31 C36         -2.6470     1.6570     1.0090 c3         1 HH1      -0.049100
     32 C37         -3.9160     2.1930     0.4090 ca         1 HH1      -0.091300
     33 C38         -3.8820     2.9660    -0.7490 ca         1 HH1      -0.123000
     34 C39         -5.0540     3.4100    -1.3450 ca         1 HH1      -0.122500
     35 C40         -6.2850     3.0790    -0.7930 ca         1 HH1      -0.127000
     36 C41         -6.3330     2.3100     0.3610 ca         1 HH1      -0.122500
     37 C42         -5.1570     1.8760     0.9580 ca         1 HH1      -0.123000
     38 C44         -6.2110    -2.0170    -0.9600 c5         1 HH1       0.138100
     39 C45         -7.0700    -0.8240    -1.3600 c5         1 HH1       0.104400
     40 O46         -8.0880    -0.7030    -0.3780 os         1 HH1      -0.415600
     41 C47         -8.0440    -1.8080     0.5120 c5         1 HH1       0.134400
     42 C48         -7.2100    -2.8660    -0.1960 c5         1 HH1      -0.119400
     43 N1           2.2930     5.3490    -0.3140 nt         1 HH1      -0.676000
     44 O2           3.8560     5.6780     1.2760 o          1 HH1      -0.613100
     45 HP4         -3.6210    -0.8380     1.4410 hn         1 HH1       0.314500
     46 H05         -2.1020     0.4990    -0.7120 h1         1 HH1       0.094700
     47 H06         -0.1770     0.5980     0.7690 h1         1 HH1       0.092700
     48 H07         -1.4430    -1.2510     2.4610 ho         1 HH1       0.396000
     49 H081        -0.6090    -1.2420    -0.9440 hc         1 HH1       0.068200
     50 H082        -1.1230    -2.2830     0.3610 hc         1 HH1       0.068200
     51 H101         0.6240    -3.9250    -0.2390 hc         1 HH1       0.057700
     52 H102         0.9280    -2.8690    -1.6040 hc         1 HH1       0.057700
     53 H12          3.0730    -2.6920    -2.5580 ha         1 HH1       0.132000
     54 H13          5.4220    -3.4210    -2.6590 ha         1 HH1       0.130500
     55 H14          6.4060    -4.7020    -0.7820 ha         1 HH1       0.130000
     56 H15          5.0070    -5.2530     1.1870 ha         1 HH1       0.130500
     57 H16          2.6560    -4.5470     1.2720 ha         1 HH1       0.132000
     58 H19          4.0580     0.6660     2.3030 hc         1 HH1       0.053700
     59 H201         2.7120     2.5820     1.7450 hc         1 HH1       0.052200
     60 H202         2.5840     2.0820     0.0560 hc         1 HH1       0.052200
     61 H22          5.0270     3.2280     1.4500 hc         1 HH1       0.077700
     62 H24          6.9010     2.7890    -1.1680 ha         1 HH1       0.128000
     63 H25          8.0110     0.7040    -1.8920 ha         1 HH1       0.126000
     64 H26          7.1310    -1.4910    -1.1850 ha         1 HH1       0.125000
     65 H27          5.1230    -1.6250     0.2600 ha         1 HH1       0.140000
     66 H29          0.7760    -2.6880     2.2940 hn         1 HH1       0.445800
     67 H30          2.5510    -1.2500     3.1330 h4         1 HH1       0.156000
     68 H361        -2.7690     1.5120     2.0850 hc         1 HH1       0.061200
     69 H362        -1.8310     2.3720     0.8760 hc         1 HH1       0.061200
     70 H38         -2.9250     3.2220    -1.1910 ha         1 HH1       0.125500
     71 H39         -5.0060     4.0150    -2.2420 ha         1 HH1       0.135500
     72 H40         -7.2010     3.4190    -1.2600 ha         1 HH1       0.133000
     73 H41         -7.2880     2.0380     0.7930 ha         1 HH1       0.135500
     74 H42         -5.2070     1.2800     1.8610 ha         1 HH1       0.125500
     75 H44         -5.7770    -2.5280    -1.8210 h1         1 HH1       0.082700
     76 H451        -6.5020     0.1060    -1.4230 h1         1 HH1       0.065200
     77 H452        -7.5140    -1.0150    -2.3440 h1         1 HH1       0.065200
     78 H471        -9.0610    -2.1460     0.7210 h1         1 HH1       0.048200
     79 H472        -7.5850    -1.5160     1.4640 h1         1 HH1       0.048200
     80 H481        -7.8200    -3.4240    -0.9100 hc         1 HH1       0.068700
     81 H482        -6.7420    -3.5820     0.4790 hc         1 HH1       0.068700
     82 HN11         1.6630     6.0300     0.0780 hn         1 HH1       0.312500
     83 HN12         1.9900     4.8580    -1.1370 hn         1 HH1       0.312500
     84 C49          4.3190     4.0360    -0.4020 c3         1 HH1      -0.151400
     85 C1           3.4760     5.1010     0.2650 c          1 HH1       0.670100
     86 H491         3.8650     3.6870    -1.3310 hc         1 HH1       0.063200
     87 H492         5.2780     4.4900    -0.6650 hc         1 HH1       0.063200
@<TRIPOS>BOND
     1     1     2 1   
     2     1    38 1   
     3     2     3 2   
     4     2     4 1   
     5     4     5 1   
     6     4    45 1   
     7     5     6 1   
     8     5    31 1   
     9     5    46 1   
    10     6     7 1   
    11     6     8 1   
    12     6    47 1   
    13     7    48 1   
    14     8     9 1   
    15     8    49 1   
    16     8    50 1   
    17     9    10 1   
    18     9    17 1   
    19     9    28 1   
    20    10    11 1   
    21    10    51 1   
    22    10    52 1   
    23    11    12 ar  
    24    11    16 ar  
    25    12    13 ar  
    26    12    53 1   
    27    13    14 ar  
    28    13    54 1   
    29    14    15 ar  
    30    14    55 1   
    31    15    16 ar  
    32    15    56 1   
    33    16    57 1   
    34    17    18 2   
    35    17    30 1   
    36    19    20 1   
    37    19    27 1   
    38    19    30 1   
    39    19    58 1   
    40    20    21 1   
    41    20    59 1   
    42    20    60 1   
    43    21    22 1   
    44    21    61 1   
    45    21    84 1   
    46    22    23 ar  
    47    22    27 ar  
    48    23    24 ar  
    49    23    62 1   
    50    24    25 ar  
    51    24    63 1   
    52    25    26 ar  
    53    25    64 1   
    54    26    27 ar  
    55    26    65 1   
    56    28    29 1   
    57    28    66 1   
    58    29    30 2   
    59    29    67 1   
    60    31    32 1   
    61    31    68 1   
    62    31    69 1   
    63    32    33 ar  
    64    32    37 ar  
    65    33    34 ar  
    66    33    70 1   
    67    34    35 ar  
    68    34    71 1   
    69    35    36 ar  
    70    35    72 1   
    71    36    37 ar  
    72    36    73 1   
    73    37    74 1   
    74    38    39 1   
    75    38    42 1   
    76    38    75 1   
    77    39    40 1   
    78    39    76 1   
    79    39    77 1   
    80    40    41 1   
    81    41    42 1   
    82    41    78 1   
    83    41    79 1   
    84    42    80 1   
    85    42    81 1   
    86    43    82 1   
    87    43    83 1   
    88    43    85 1   
    89    44    85 2   
    90    84    85 1   
    91    84    86 1   
    92    84    87 1   
@<TRIPOS>SUBSTRUCTURE
     1 HH1         1 TEMP              0 ****  ****    0 ROOT
