@<TRIPOS>MOLECULE
HH3
   22    22     1     0     0
SMALL
bcc


@<TRIPOS>ATOM
      1 O1           0.1740    -2.0090    -0.5320 o          1 HH3      -0.628100
      2 O2          -2.4000    -1.2200     1.3720 oh         1 HH3      -0.639800
      3 C1           4.2390     0.8630    -0.0600 ca         1 HH3      -0.130000
      4 C6           4.0500    -0.5020     0.1190 ca         1 HH3      -0.149500
      5 C5           2.7730    -1.0400     0.0730 ca         1 HH3      -0.093500
      6 C4           1.6680    -0.2150    -0.1270 ca         1 HH3      -0.132600
      7 C3           1.8640     1.1530    -0.3110 ca         1 HH3      -0.093500
      8 C2           3.1440     1.6880    -0.2810 ca         1 HH3      -0.149500
      9 C7           0.3120    -0.8470    -0.1740 c          1 HH3       0.670700
     10 N1          -0.7160    -0.0630     0.1980 ns         1 HH3      -0.531900
     11 C9          -2.0860    -0.5160     0.2100 c3         1 HH3       0.140500
     12 C10         -3.0290     0.7130     0.0710 c          1 HH3       0.895600
     13 O3          -3.8910     0.7970     0.9720 o          1 HH3      -0.811800
     14 O4          -2.8430     1.4640    -0.8930 o          1 HH3      -0.811800
     15 HO2         -3.1140    -0.6780     1.7590 ho         1 HH3       0.436000
     16 H5           2.6330    -2.1040     0.2030 ha         1 HH3       0.149000
     17 H3           1.0280     1.8120    -0.5070 ha         1 HH3       0.149000
     18 H2           3.2860     2.7490    -0.4350 ha         1 HH3       0.121000
     19 HN1         -0.5100     0.8310     0.6160 hn         1 HH3       0.306500
     20 H9          -2.2150    -1.1620    -0.6640 h2         1 HH3       0.066700
     21 H1           5.2370     1.2810    -0.0310 ha         1 HH3       0.116000
     22 H6           4.9000    -1.1500     0.2900 ha         1 HH3       0.121000
@<TRIPOS>BOND
     1     1     9 2   
     2     2    11 1   
     3     2    15 1   
     4     3     4 ar  
     5     3     8 ar  
     6     3    21 1   
     7     4     5 ar  
     8     4    22 1   
     9     5     6 ar  
    10     5    16 1   
    11     6     7 ar  
    12     6     9 1   
    13     7     8 ar  
    14     7    17 1   
    15     8    18 1   
    16     9    10 1   
    17    10    11 1   
    18    10    19 1   
    19    11    12 1   
    20    11    20 1   
    21    12    13 1   
    22    12    14 1   
@<TRIPOS>SUBSTRUCTURE
     1 HH3         1 TEMP              0 ****  ****    0 ROOT
