@<TRIPOS>MOLECULE
HH3
   22    22     1     0     0
SMALL
No Charge or Current Charge


@<TRIPOS>ATOM
      1 O1           0.0940    -1.9730    -0.5090 o          1 HH3      -0.628100
      2 O2          -2.6310    -0.1940     1.8580 oh         1 HH3      -0.702000
      3 C1           4.2760     0.9040    -0.0790 ca         1 HH3      -0.112000
      4 C6           4.0570    -0.3790    -0.6010 ca         1 HH3      -0.131500
      5 C5           2.7670    -0.9360    -0.5890 ca         1 HH3      -0.075500
      6 C4           1.6720    -0.2170    -0.0540 ca         1 HH3      -0.132600
      7 C3           1.9090     1.0790     0.4700 ca         1 HH3      -0.075500
      8 C2           3.2020     1.6310     0.4550 ca         1 HH3      -0.131500
      9 C7           0.2920    -0.8510    -0.0590 c          1 HH3       0.603700
     10 N1          -0.7340    -0.1000     0.4720 ns         1 HH3      -0.464900
     11 C9          -2.1300    -0.5310     0.5500 c3         1 HH3       0.163700
     12 C10         -2.9850     0.1390    -0.6070 c          1 HH3       0.685000
     13 O3          -3.6560     1.1250    -0.3180 o          1 HH3      -0.706500
     14 O4          -2.9700    -0.3600    -1.7250 o          1 HH3      -0.706500
     15 HO2         -3.2500     0.5600     1.6970 ho         1 HH3       0.475000
     16 H5           2.6200    -1.9330    -1.0000 ha         1 HH3       0.131000
     17 H3           1.1040     1.6740     0.8940 ha         1 HH3       0.131000
     18 H2           3.3710     2.6260     0.8610 ha         1 HH3       0.103000
     19 HN1         -0.5000     0.8140     0.8290 hn         1 HH3       0.306500
     20 H9          -2.1670    -1.6200     0.4290 h2         1 HH3       0.066700
     21 H1           5.2750     1.3340    -0.0890 ha         1 HH3       0.098000
     22 H6           4.8880    -0.9450    -1.0170 ha         1 HH3       0.103000
@<TRIPOS>BOND
     1     1     9 2   
     2     2    11 1   
     3     2    15 1   
     4     3     4 ar  
     5     3     8 ar  
     6     3    21 1   
     7     4     5 ar  
     8     4    22 1   
     9     5     6 ar  
    10     5    16 1   
    11     6     7 ar  
    12     6     9 1   
    13     7     8 ar  
    14     7    17 1   
    15     8    18 1   
    16     9    10 1   
    17    10    11 1   
    18    10    19 1   
    19    11    12 1   
    20    11    20 1   
    21    12    13 1   
    22    12    14 1   
@<TRIPOS>SUBSTRUCTURE
     1 HH3         1 TEMP              0 ****  ****    0 ROOT
