@<TRIPOS>MOLECULE
HH4
   34    34     1     0     0
SMALL
No Charge or Current Charge


@<TRIPOS>ATOM
      1 C4          -2.7450     0.0850     0.0020 ca         1 HH4      -0.060300
      2 C2          -4.9180    -0.2180     1.2680 c3         1 HH4      -0.080767
      3 C3          -4.5160     1.9760     0.1110 c3         1 HH4      -0.080767
      4 C1          -4.2560     0.4450     0.0300 c3         1 HH4       0.000300
      5 C7           0.0210    -0.6600    -0.0520 ca         1 HH4      -0.163600
      6 C6          -0.9960    -1.6370    -0.0980 ca         1 HH4      -0.068000
      7 C8          -0.3640     0.6970     0.0210 ca         1 HH4      -0.068000
      8 C12          4.0580    -0.5170    -0.0650 c3         1 HH4      -0.203400
      9 C13          5.0370     0.6680    -0.0060 c          1 HH4       0.717000
     10 C9          -1.7220     1.0620     0.0480 ca         1 HH4      -0.131000
     11 C5          -2.3510    -1.2690    -0.0710 ca         1 HH4      -0.131000
     12 C11          2.5850    -0.0090    -0.0310 c3         1 HH4      -0.145400
     13 O1           5.3750     1.1880    -1.0590 o          1 HH4      -0.742000
     14 O2           1.7750    -2.2760    -0.1480 o          1 HH4      -0.545100
     15 C10          1.4800    -1.0870    -0.0830 c          1 HH4       0.570700
     16 O            5.3840     1.0740     1.0920 o          1 HH4      -0.742000
     17 C           -4.9330    -0.0860    -1.2630 c3         1 HH4      -0.080767
     18 H1          -5.9810     0.0450     1.3320 hc         1 HH4       0.032367
     19 H2          -4.8520    -1.3110     1.2250 hc         1 HH4       0.032367
     20 H3          -4.4300     0.1140     2.1920 hc         1 HH4       0.032367
     21 H4          -4.0820     2.4030     1.0230 hc         1 HH4       0.032367
     22 H5          -4.0920     2.4960    -0.7560 hc         1 HH4       0.032367
     23 H6          -5.5920     2.1890     0.1290 hc         1 HH4       0.032367
     24 H7          -0.7420    -2.6940    -0.1550 ha         1 HH4       0.130000
     25 H8           0.3770     1.4920     0.0590 ha         1 HH4       0.130000
     26 H9           4.1690    -1.0550    -1.0140 hc         1 HH4       0.032200
     27 H10          4.1770    -1.1520     0.8220 hc         1 HH4       0.032200
     28 H11         -1.9530     2.1210     0.1050 ha         1 HH4       0.104500
     29 H12         -3.0990    -2.0570    -0.1080 ha         1 HH4       0.104500
     30 H13          2.3980     0.6150     0.8510 hc         1 HH4       0.064200
     31 H14          2.3900     0.7040    -0.8400 hc         1 HH4       0.064200
     32 H16         -5.9960     0.1830    -1.2880 hc         1 HH4       0.032367
     33 H17         -4.4550     0.3420    -2.1530 hc         1 HH4       0.032367
     34 H18         -4.8670    -1.1770    -1.3360 hc         1 HH4       0.032367
@<TRIPOS>BOND
     1     1     4 1   
     2     1    10 ar  
     3     1    11 ar  
     4     2     4 1   
     5     2    18 1   
     6     2    19 1   
     7     2    20 1   
     8     3     4 1   
     9     3    21 1   
    10     3    22 1   
    11     3    23 1   
    12     4    17 1   
    13     5     6 ar  
    14     5     7 ar  
    15     5    15 1   
    16     6    11 ar  
    17     6    24 1   
    18     7    10 ar  
    19     7    25 1   
    20     8     9 1   
    21     8    12 1   
    22     8    26 1   
    23     8    27 1   
    24     9    13 1   
    25     9    16 1   
    26    10    28 1   
    27    11    29 1   
    28    12    15 1   
    29    12    30 1   
    30    12    31 1   
    31    14    15 2   
    32    17    32 1   
    33    17    33 1   
    34    17    34 1   
@<TRIPOS>SUBSTRUCTURE
     1 HH4         1 TEMP              0 ****  ****    0 ROOT
