@<TRIPOS>MOLECULE
HH4
   34    34     1     0     0
SMALL
abcg2


@<TRIPOS>ATOM
      1 C4          -2.7340     0.1000    -0.0190 ca         1 HH4      -0.060300
      2 C2          -4.8580    -0.1630     1.2520 c3         1 HH4      -0.080767
      3 C3          -4.4760     1.9430    -0.0110 c3         1 HH4      -0.080767
      4 C1          -4.2210     0.4360    -0.0100 c3         1 HH4       0.000300
      5 C7           0.0050    -0.6080    -0.0260 ca         1 HH4      -0.163600
      6 C6          -0.9900    -1.5880    -0.0360 ca         1 HH4      -0.068000
      7 C8          -0.3910     0.7260    -0.0130 ca         1 HH4      -0.068000
      8 C12          3.9170    -0.4760     0.0230 c3         1 HH4      -0.203400
      9 C13          5.0090     0.6090     0.0320 c          1 HH4       0.717000
     10 C9          -1.7360     1.0710    -0.0090 ca         1 HH4      -0.131000
     11 C5          -2.3250    -1.2390    -0.0340 ca         1 HH4      -0.131000
     12 C11          2.4960     0.0510    -0.0090 c3         1 HH4      -0.145400
     13 O1           4.6520     1.8020    -0.0270 o          1 HH4      -0.742000
     14 O2           1.7240    -2.2030    -0.0460 o          1 HH4      -0.545100
     15 C10          1.4380    -1.0220    -0.0280 c          1 HH4       0.570700
     16 O            6.1840     0.1900     0.0970 o          1 HH4      -0.742000
     17 C           -4.8800    -0.1680    -1.2560 c3         1 HH4      -0.080767
     18 H1          -5.9270     0.0570     1.2770 hc         1 HH4       0.032367
     19 H2          -4.7470    -1.2470     1.2920 hc         1 HH4       0.032367
     20 H3          -4.4070     0.2540     2.1540 hc         1 HH4       0.032367
     21 H4          -4.0580     2.4300     0.8720 hc         1 HH4       0.032367
     22 H5          -4.0620     2.4290    -0.8960 hc         1 HH4       0.032367
     23 H6          -5.5500     2.1310    -0.0080 hc         1 HH4       0.032367
     24 H7          -0.7160    -2.6350    -0.0470 ha         1 HH4       0.130000
     25 H8           0.3420     1.5200    -0.0050 ha         1 HH4       0.130000
     26 H9           4.0950    -1.1310    -0.8350 hc         1 HH4       0.032200
     27 H10          4.0620    -1.1140     0.9000 hc         1 HH4       0.032200
     28 H11         -1.9910     2.1220     0.0020 ha         1 HH4       0.104500
     29 H12         -3.0620    -2.0320    -0.0420 ha         1 HH4       0.104500
     30 H13          2.3110     0.7070     0.8470 hc         1 HH4       0.064200
     31 H14          2.3460     0.6950    -0.8820 hc         1 HH4       0.064200
     32 H16         -5.9490     0.0540    -1.2630 hc         1 HH4       0.032367
     33 H17         -4.4450     0.2440    -2.1690 hc         1 HH4       0.032367
     34 H18         -4.7730    -1.2520    -1.2940 hc         1 HH4       0.032367
@<TRIPOS>BOND
     1     1     4 1   
     2     1    10 ar  
     3     1    11 ar  
     4     2     4 1   
     5     2    18 1   
     6     2    19 1   
     7     2    20 1   
     8     3     4 1   
     9     3    21 1   
    10     3    22 1   
    11     3    23 1   
    12     4    17 1   
    13     5     6 ar  
    14     5     7 ar  
    15     5    15 1   
    16     6    11 ar  
    17     6    24 1   
    18     7    10 ar  
    19     7    25 1   
    20     8     9 1   
    21     8    12 1   
    22     8    26 1   
    23     8    27 1   
    24     9    13 1   
    25     9    16 1   
    26    10    28 1   
    27    11    29 1   
    28    12    15 1   
    29    12    30 1   
    30    12    31 1   
    31    14    15 2   
    32    17    32 1   
    33    17    33 1   
    34    17    34 1   
@<TRIPOS>SUBSTRUCTURE
     1 HH4         1 TEMP              0 ****  ****    0 ROOT
