@<TRIPOS>MOLECULE
HH5
   15    16     1     0     0
SMALL
No Charge or Current Charge


@<TRIPOS>ATOM
      1 C4           2.1140     2.6760     0.0070 cc         1 HH5       0.447700
      2 C5           2.4140     0.5160    -0.0270 ca         1 HH5       0.283000
      3 N1           2.4830    -2.9970    -0.0760 nv         1 HH5      -1.050900
      4 N2           0.6520    -1.6080    -0.0330 nb         1 HH5      -0.209000
      5 C3           1.0650     0.7320    -0.0060 ca         1 HH5      -0.242200
      6 N3           0.8570     2.0820     0.0150 na         1 HH5      -0.284600
      7 C1           1.9960    -1.7260    -0.0520 ca         1 HH5       0.367900
      8 C2           0.1710    -0.3480    -0.0100 ca         1 HH5       0.297800
      9 I1          -1.9670    -0.0490     0.0220 i          1 HH5      -0.201800
     10 N4           3.0870     1.7380    -0.0180 nd         1 HH5      -0.650700
     11 N5           2.9130    -0.7340    -0.0500 nb         1 HH5      -0.188000
     12 H1           2.2510     3.7510     0.0200 h5         1 HH5       0.068800
     13 H2           1.8500    -3.7710     0.1230 hn         1 HH5       0.494000
     14 H3           3.4720    -3.1540     0.1090 hn         1 HH5       0.494000
     15 H4          -0.0290     2.5760     0.0330 hn         1 HH5       0.371000
@<TRIPOS>BOND
     1     1     6 1   
     2     1    10 2   
     3     1    12 1   
     4     2     5 ar  
     5     2    10 1   
     6     2    11 ar  
     7     3     7 1   
     8     3    13 1   
     9     3    14 1   
    10     4     7 ar  
    11     4     8 ar  
    12     5     6 1   
    13     5     8 ar  
    14     6    15 1   
    15     7    11 ar  
    16     8     9 1   
@<TRIPOS>SUBSTRUCTURE
     1 HH5         1 TEMP              0 ****  ****    0 ROOT
