@<TRIPOS>MOLECULE
HH5
   15    16     1     0     0
SMALL
abcg2


@<TRIPOS>ATOM
      1 C4           2.1130     2.6040     0.0060 cc         1 HH5       0.447700
      2 C5           2.3770     0.5050    -0.0200 ca         1 HH5       0.283000
      3 N1           2.4820    -2.9690    -0.1020 nv         1 HH5      -1.050900
      4 N2           0.6730    -1.5620    -0.0240 nb         1 HH5      -0.209000
      5 C3           0.9920     0.7470    -0.0060 ca         1 HH5      -0.242200
      6 N3           0.8630     2.1080     0.0090 na         1 HH5      -0.284600
      7 C1           2.0190    -1.7010    -0.0410 ca         1 HH5       0.367900
      8 C2           0.1720    -0.3590    -0.0070 ca         1 HH5       0.297800
      9 I1          -1.9240    -0.1420     0.0200 i          1 HH5      -0.201800
     10 N4           3.0520     1.6880    -0.0110 nd         1 HH5      -0.650700
     11 N5           2.9040    -0.7100    -0.0360 nb         1 HH5      -0.188000
     12 H1           2.2900     3.6680     0.0160 h5         1 HH5       0.068800
     13 H2           1.8520    -3.7160     0.1320 hn         1 HH5       0.494000
     14 H3           3.4540    -3.1260     0.0960 hn         1 HH5       0.494000
     15 H4           0.0110     2.6490     0.0250 hn         1 HH5       0.371000
@<TRIPOS>BOND
     1     1     6 1   
     2     1    10 2   
     3     1    12 1   
     4     2     5 ar  
     5     2    10 1   
     6     2    11 ar  
     7     3     7 1   
     8     3    13 1   
     9     3    14 1   
    10     4     7 ar  
    11     4     8 ar  
    12     5     6 1   
    13     5     8 ar  
    14     6    15 1   
    15     7    11 ar  
    16     8     9 1   
@<TRIPOS>SUBSTRUCTURE
     1 HH5         1 TEMP              0 ****  ****    0 ROOT
