@<TRIPOS>MOLECULE
HH6
   27    29     1     0     0
SMALL
No Charge or Current Charge


@<TRIPOS>ATOM
      1 C1           1.1630     0.1050     0.1140 ca         1 HH6      -0.255900
      2 C2          -0.0390     0.8910     0.3040 cc         1 HH6       0.426500
      3 C3           2.1920     0.9540     0.3800 ca         1 HH6      -0.000200
      4 C4           1.3860    -1.2110    -0.3210 ca         1 HH6       0.007000
      5 C5          -1.4100     0.3910     0.1480 ca         1 HH6      -0.134900
      6 N6           0.2440     2.1630     0.6330 nd         1 HH6      -0.521100
      7 N7           1.6440     2.1780     0.6940 na         1 HH6      -0.060400
      8 C8           3.5300     0.5600     0.2790 ca         1 HH6      -0.185000
      9 C9           2.7260    -1.6440    -0.4270 ca         1 HH6      -0.235000
     10 C10         -1.7660    -0.9000     0.5940 ca         1 HH6      -0.049000
     11 C11         -2.4200     1.2390    -0.3560 ca         1 HH6      -0.049000
     12 C12          3.7910    -0.7640    -0.1220 ca         1 HH6       0.175100
     13 C13         -3.0930    -1.3530     0.4830 ca         1 HH6      -0.182000
     14 C14         -3.7460     0.7830    -0.4660 ca         1 HH6      -0.182000
     15 O15          5.0780    -1.1910    -0.2340 oh         1 HH6      -0.533100
     16 C16         -4.0800    -0.5130    -0.0530 ca         1 HH6       0.146100
     17 O17         -5.3680    -0.9450    -0.1620 oh         1 HH6      -0.532100
     18 H1           0.5670    -1.8770    -0.5820 ha         1 HH6       0.119000
     19 H3           4.3410     1.2510     0.4930 ha         1 HH6       0.136000
     20 H4           2.9310    -2.6600    -0.7540 ha         1 HH6       0.114000
     21 H5          -1.0220    -1.5510     1.0470 ha         1 HH6       0.121500
     22 H6          -2.1760     2.2510    -0.6750 ha         1 HH6       0.121500
     23 H7          -3.3470    -2.3530     0.8270 ha         1 HH6       0.121500
     24 H8          -4.5130     1.4390    -0.8690 ha         1 HH6       0.121500
     25 H9           5.0640    -2.1270    -0.5270 ho         1 HH6       0.468000
     26 H10         -5.4150    -1.8650     0.1760 ho         1 HH6       0.465000
     27 H2           2.1610     3.0240     0.9310 hn         1 HH6       0.378000
@<TRIPOS>BOND
     1     1     2 1   
     2     1     3 ar  
     3     1     4 ar  
     4     2     5 1   
     5     2     6 2   
     6     3     7 1   
     7     3     8 ar  
     8     4     9 ar  
     9     4    18 1   
    10     5    10 ar  
    11     5    11 ar  
    12     6     7 1   
    13     7    27 1   
    14     8    12 ar  
    15     8    19 1   
    16     9    12 ar  
    17     9    20 1   
    18    10    13 ar  
    19    10    21 1   
    20    11    14 ar  
    21    11    22 1   
    22    12    15 1   
    23    13    16 ar  
    24    13    23 1   
    25    14    16 ar  
    26    14    24 1   
    27    15    25 1   
    28    16    17 1   
    29    17    26 1   
@<TRIPOS>SUBSTRUCTURE
     1 HH6         1 TEMP              0 ****  ****    0 ROOT
