@<TRIPOS>MOLECULE
HH6
   27    29     1     0     0
SMALL
abcg2


@<TRIPOS>ATOM
      1 C1           1.1520     0.0130     0.0960 ca         1 HH6      -0.255900
      2 C2          -0.0440     0.7790     0.2680 cc         1 HH6       0.426500
      3 C3           2.1930     0.9390     0.2860 ca         1 HH6      -0.000200
      4 C4           1.4830    -1.3100    -0.2250 ca         1 HH6       0.007000
      5 C5          -1.4400     0.3490     0.1690 ca         1 HH6      -0.134900
      6 N6           0.2580     2.0300     0.5290 nd         1 HH6      -0.521100
      7 N7           1.5910     2.1220     0.5360 na         1 HH6      -0.060400
      8 C8           3.5460     0.6000     0.1990 ca         1 HH6      -0.185000
      9 C9           2.8080    -1.6640    -0.3170 ca         1 HH6      -0.235000
     10 C10         -1.8210    -0.9600     0.4580 ca         1 HH6      -0.049000
     11 C11         -2.4390     1.2510    -0.2070 ca         1 HH6      -0.049000
     12 C12          3.8360    -0.7160    -0.1000 ca         1 HH6       0.175100
     13 C13         -3.1450    -1.3630     0.3650 ca         1 HH6      -0.182000
     14 C14         -3.7630     0.8630    -0.2990 ca         1 HH6      -0.182000
     15 O15          5.1330    -1.0680    -0.1870 oh         1 HH6      -0.533100
     16 C16         -4.1260    -0.4530    -0.0180 ca         1 HH6       0.146100
     17 O17         -5.4260    -0.7860    -0.1300 oh         1 HH6      -0.532100
     18 H1           0.7210    -2.0550    -0.4090 ha         1 HH6       0.119000
     19 H3           4.3320     1.3280     0.3520 ha         1 HH6       0.136000
     20 H4           3.0730    -2.6850    -0.5660 ha         1 HH6       0.114000
     21 H5          -1.0870    -1.6840     0.7840 ha         1 HH6       0.121500
     22 H6          -2.1740     2.2740    -0.4430 ha         1 HH6       0.121500
     23 H7          -3.4100    -2.3870     0.6030 ha         1 HH6       0.121500
     24 H8          -4.5200     1.5780    -0.5990 ha         1 HH6       0.121500
     25 H9           5.2170    -2.0060    -0.3930 ho         1 HH6       0.468000
     26 H10         -5.5530    -1.7210     0.0680 ho         1 HH6       0.465000
     27 H2           2.0270     3.0070     0.7340 hn         1 HH6       0.378000
@<TRIPOS>BOND
     1     1     2 1   
     2     1     3 ar  
     3     1     4 ar  
     4     2     5 1   
     5     2     6 2   
     6     3     7 1   
     7     3     8 ar  
     8     4     9 ar  
     9     4    18 1   
    10     5    10 ar  
    11     5    11 ar  
    12     6     7 1   
    13     7    27 1   
    14     8    12 ar  
    15     8    19 1   
    16     9    12 ar  
    17     9    20 1   
    18    10    13 ar  
    19    10    21 1   
    20    11    14 ar  
    21    11    22 1   
    22    12    15 1   
    23    13    16 ar  
    24    13    23 1   
    25    14    16 ar  
    26    14    24 1   
    27    15    25 1   
    28    16    17 1   
    29    17    26 1   
@<TRIPOS>SUBSTRUCTURE
     1 HH6         1 TEMP              0 ****  ****    0 ROOT
