@<TRIPOS>MOLECULE
HH7
   31    32     1     0     0
SMALL
No Charge or Current Charge


@<TRIPOS>ATOM
      1 N11          4.2000     0.4680    -0.0070 nu         1 HH7      -0.893100
      2 C02         -4.6820    -0.7190    -0.0220 ca         1 HH7       0.086000
      3 C03         -4.3650     0.6480    -0.0210 ca         1 HH7      -0.060000
      4 C04         -3.0200     1.0570    -0.0180 ca         1 HH7       0.083000
      5 Cl2         -2.6520     2.7830    -0.0170 cl         1 HH7      -0.172000
      6 C06         -1.9820     0.0980    -0.0170 ca         1 HH7       0.156100
      7 O07         -0.6710     0.5390    -0.0150 os         1 HH7      -0.327100
      8 C08          0.4460    -0.3650    -0.0140 c3         1 HH7       0.166600
      9 C09          1.7290     0.4840    -0.0110 c3         1 HH7      -0.093400
     10 C10          3.0030    -0.3780    -0.0090 c3         1 HH7       0.200800
     11 C12          5.4840     0.0600    -0.0030 cc         1 HH7       0.634400
     12 N13          5.8980    -1.2340    -0.0020 na         1 HH7      -0.336500
     13 C14          7.2790    -1.2160     0.0020 cc         1 HH7      -0.246000
     14 C15          7.6140     0.1180     0.0020 cd         1 HH7       0.258900
     15 N16          6.4770     0.9060    -0.0010 nd         1 HH7      -0.724000
     16 C17         -2.3100    -1.2780    -0.0190 ca         1 HH7      -0.190000
     17 C18         -3.6590    -1.6810    -0.0210 ca         1 HH7      -0.061000
     18 H1           4.0990     1.4800    -0.0070 hn         1 HH7       0.485000
     19 H2          -5.1580     1.3900    -0.0210 ha         1 HH7       0.146000
     20 H3           0.4270    -1.0040     0.8790 h1         1 HH7       0.037700
     21 H4           0.4300    -1.0030    -0.9070 h1         1 HH7       0.037700
     22 H5           1.7290     1.1330    -0.8960 hc         1 HH7       0.071200
     23 H6           1.7260     1.1320     0.8730 hc         1 HH7       0.071200
     24 H7           3.0070    -1.0230    -0.8990 h1         1 HH7       0.032200
     25 H8           3.0030    -1.0230     0.8800 h1         1 HH7       0.032200
     26 H9           5.2860    -2.0380    -0.0030 hn         1 HH7       0.347000
     27 H10          7.8990    -2.1050     0.0040 h4         1 HH7       0.157000
     28 H11          8.6070     0.5520     0.0040 h4         1 HH7       0.037100
     29 H13         -1.5400    -2.0450    -0.0180 ha         1 HH7       0.122000
     30 H14         -3.9120    -2.7390    -0.0210 ha         1 HH7       0.132000
     31 Cl1         -6.3660    -1.2290    -0.0240 cl         1 HH7      -0.193000
@<TRIPOS>BOND
     1     1    10 1   
     2     1    11 1   
     3     1    18 1   
     4     2     3 ar  
     5     2    17 ar  
     6     2    31 1   
     7     3     4 ar  
     8     3    19 1   
     9     4     5 1   
    10     4     6 ar  
    11     6     7 1   
    12     6    16 ar  
    13     7     8 1   
    14     8     9 1   
    15     8    20 1   
    16     8    21 1   
    17     9    10 1   
    18     9    22 1   
    19     9    23 1   
    20    10    24 1   
    21    10    25 1   
    22    11    12 1   
    23    11    15 2   
    24    12    13 1   
    25    12    26 1   
    26    13    14 2   
    27    13    27 1   
    28    14    15 1   
    29    14    28 1   
    30    16    17 ar  
    31    16    29 1   
    32    17    30 1   
@<TRIPOS>SUBSTRUCTURE
     1 HH7         1 TEMP              0 ****  ****    0 ROOT
