@<TRIPOS>MOLECULE
HH7
   31    32     1     0     0
SMALL
abcg2


@<TRIPOS>ATOM
      1 N11          4.1410     0.6600     0.0580 nu         1 HH7      -0.893100
      2 C02         -4.5080    -0.8380    -0.0620 ca         1 HH7       0.086000
      3 C03         -4.2680     0.5220     0.0640 ca         1 HH7      -0.060000
      4 C04         -2.9620     0.9720     0.1020 ca         1 HH7       0.083000
      5 CL2         -2.6490     2.6620     0.2600 cl         1 HH7      -0.172000
      6 C06         -1.8790     0.0890     0.0160 ca         1 HH7       0.156100
      7 O07         -0.6570     0.6270     0.0620 os         1 HH7      -0.327100
      8 C08          0.4760    -0.2260    -0.0220 c3         1 HH7       0.166600
      9 C09          1.7100     0.6470     0.0570 c3         1 HH7      -0.093400
     10 C10          2.9740    -0.1940    -0.0360 c3         1 HH7       0.200800
     11 C12          5.3960     0.1130    -0.0120 cc         1 HH7       0.634400
     12 N13          5.6650    -1.1790     0.2810 na         1 HH7      -0.336500
     13 C14          7.0280    -1.3530     0.1610 cc         1 HH7      -0.246000
     14 C15          7.5070    -0.1380    -0.2060 cd         1 HH7       0.258900
     15 N16          6.4860     0.7750    -0.3160 nd         1 HH7      -0.724000
     16 C17         -2.1520    -1.2700    -0.1100 ca         1 HH7      -0.190000
     17 C18         -3.4590    -1.7340    -0.1480 ca         1 HH7      -0.061000
     18 H1           4.0760     1.5080    -0.4870 hn         1 HH7       0.485000
     19 H2          -5.0850     1.2280     0.1310 ha         1 HH7       0.146000
     20 H3           0.4670    -0.9510     0.7990 h1         1 HH7       0.037700
     21 H4           0.4600    -0.7850    -0.9640 h1         1 HH7       0.037700
     22 H5           1.6930     1.3750    -0.7590 hc         1 HH7       0.071200
     23 H6           1.7140     1.2030     0.9970 hc         1 HH7       0.071200
     24 H7           2.9650    -0.7830    -0.9630 h1         1 HH7       0.032200
     25 H8           2.9840    -0.9060     0.7940 h1         1 HH7       0.032200
     26 H9           5.0070    -1.8950     0.5410 hn         1 HH7       0.347000
     27 H10          7.5020    -2.3030     0.3420 h4         1 HH7       0.157000
     28 H11          8.5330     0.1370    -0.4010 h4         1 HH7       0.037100
     29 H13         -1.3510    -1.9930    -0.1780 ha         1 HH7       0.122000
     30 H14         -3.6450    -2.7950    -0.2450 ha         1 HH7       0.132000
     31 CL1         -6.1430    -1.4090    -0.1080 cl         1 HH7      -0.193000
@<TRIPOS>BOND
     1     1    10 1   
     2     1    11 1   
     3     1    18 1   
     4     2     3 ar  
     5     2    17 ar  
     6     2    31 1   
     7     3     4 ar  
     8     3    19 1   
     9     4     5 1   
    10     4     6 ar  
    11     6     7 1   
    12     6    16 ar  
    13     7     8 1   
    14     8     9 1   
    15     8    20 1   
    16     8    21 1   
    17     9    10 1   
    18     9    22 1   
    19     9    23 1   
    20    10    24 1   
    21    10    25 1   
    22    11    12 1   
    23    11    15 2   
    24    12    13 1   
    25    12    26 1   
    26    13    14 2   
    27    13    27 1   
    28    14    15 1   
    29    14    28 1   
    30    16    17 ar  
    31    16    29 1   
    32    17    30 1   
@<TRIPOS>SUBSTRUCTURE
     1 HH7         1 TEMP              0 ****  ****    0 ROOT
