@<TRIPOS>MOLECULE
HH8
   16    17     1     0     0
SMALL
abcg2


@<TRIPOS>ATOM
      1 C4           1.8840    -0.5700    -0.0180 ca         1 HH8       0.052000
      2 C5           3.1570     1.3250     0.0010 ca         1 HH8       0.105900
      3 C6           2.0250     2.1630     0.0210 ca         1 HH8      -0.165000
      4 C7           0.7850     1.5920     0.0200 ca         1 HH8      -0.048000
      5 C8           0.6780     0.1850     0.0000 ca         1 HH8      -0.114000
      6 N1           1.8980    -1.9190    -0.0370 nb         1 HH8      -0.098000
      7 N2           3.0960     0.0210    -0.0170 nb         1 HH8      -0.111000
      8 C3           0.7560    -2.5460    -0.0400 ca         1 HH8       0.100900
      9 C1          -0.5320    -0.5480    -0.0040 ca         1 HH8       0.034100
     10 C2          -0.5030    -1.9120    -0.0240 ca         1 HH8      -0.143000
     11 H1           4.1480     1.7660     0.0010 h4         1 HH8       0.026100
     12 H2           2.1490     3.2360     0.0350 ha         1 HH8       0.130000
     13 H3          -0.0970     2.2170     0.0340 ha         1 HH8       0.134000
     14 H4           0.7890    -3.6300    -0.0560 h4         1 HH8       0.028100
     15 H5          -1.4010    -2.5130    -0.0290 ha         1 HH8       0.142000
     16 BR1         -2.1910     0.3340     0.0190 br         1 HH8      -0.076100
@<TRIPOS>BOND
     1     1     5 ar  
     2     1     6 ar  
     3     1     7 ar  
     4     2     3 ar  
     5     2     7 ar  
     6     2    11 1   
     7     3     4 ar  
     8     3    12 1   
     9     4     5 ar  
    10     4    13 1   
    11     5     9 ar  
    12     6     8 ar  
    13     8    10 ar  
    14     8    14 1   
    15     9    10 ar  
    16     9    16 1   
    17    10    15 1   
@<TRIPOS>SUBSTRUCTURE
     1 HH8         1 TEMP              0 ****  ****    0 ROOT
