@<TRIPOS>MOLECULE
HH8
   16    17     1     0     0
SMALL
No Charge or Current Charge


@<TRIPOS>ATOM
      1 C4           1.9360    -0.5990    -0.0190 ca         1 HH8       0.052000
      2 C5           3.1810     1.3830     0.0020 ca         1 HH8       0.105900
      3 C6           2.0350     2.1870     0.0210 ca         1 HH8      -0.165000
      4 C7           0.7800     1.5650     0.0190 ca         1 HH8      -0.048000
      5 C8           0.7200     0.1540    -0.0010 ca         1 HH8      -0.114000
      6 N1           1.8980    -1.9510    -0.0390 nb         1 HH8      -0.098000
      7 N2           3.1300     0.0370    -0.0170 nb         1 HH8      -0.111000
      8 C3           0.7160    -2.5960    -0.0410 ca         1 HH8       0.100900
      9 C1          -0.5190    -0.5300    -0.0040 ca         1 HH8       0.034100
     10 C2          -0.5140    -1.9290    -0.0240 ca         1 HH8      -0.143000
     11 H1           4.1740     1.8290     0.0030 h4         1 HH8       0.026100
     12 H2           2.1200     3.2700     0.0360 ha         1 HH8       0.130000
     13 H3          -0.1160     2.1810     0.0330 ha         1 HH8       0.134000
     14 H4           0.7600    -3.6840    -0.0570 h4         1 HH8       0.028100
     15 H5          -1.4450    -2.4910    -0.0270 ha         1 HH8       0.142000
     16 Br1         -2.2140     0.3750     0.0190 br         1 HH8      -0.076100
@<TRIPOS>BOND
     1     1     5 ar  
     2     1     6 ar  
     3     1     7 ar  
     4     2     3 ar  
     5     2     7 ar  
     6     2    11 1   
     7     3     4 ar  
     8     3    12 1   
     9     4     5 ar  
    10     4    13 1   
    11     5     9 ar  
    12     6     8 ar  
    13     8    10 ar  
    14     8    14 1   
    15     9    10 ar  
    16     9    16 1   
    17    10    15 1   
@<TRIPOS>SUBSTRUCTURE
     1 HH8         1 TEMP              0 ****  ****    0 ROOT
