@<TRIPOS>MOLECULE
HH9
   25    27     1     0     0
SMALL
abcg2


@<TRIPOS>ATOM
      1 CAA        -20.9910    -0.0170    -6.5190 ca         1 HH9      -0.234600
      2 CAB        -21.9310     0.7860    -7.1610 ca         1 HH9       0.179100
      3 CAC        -20.0920    -0.7510    -7.3010 ca         1 HH9      -0.026000
      4 CAD        -21.9850     0.8680    -8.5490 ca         1 HH9      -0.154000
      5 CAE        -20.1360    -0.6810    -8.6750 ca         1 HH9      -0.170000
      6 CAF        -21.0870     0.1340    -9.2960 ca         1 HH9      -0.066000
      7 CAG        -20.9570    -0.0840    -5.0540 c          1 HH9       0.608300
      8 CAH        -21.9780     0.7270    -4.3780 ca         1 HH9      -0.251600
      9 CAJ        -22.8690     1.4820    -5.1380 ca         1 HH9       0.130100
     10 CAK        -22.0780     0.7490    -2.9850 ca         1 HH9      -0.002000
     11 CAL        -23.0490     1.4940    -2.3460 ca         1 HH9      -0.165600
     12 CAM        -23.8520     2.2400    -4.4980 ca         1 HH9       0.057000
     13 CAN        -23.9390     2.2410    -3.1240 ca         1 HH9      -0.019000
     14 CAO        -23.1600     1.5060    -0.8210 c          1 HH9       0.720600
     15 OAI        -22.8370     1.5200    -6.4780 os         1 HH9      -0.208200
     16 OAP        -24.1070     2.1590    -0.3470 o          1 HH9      -0.707000
     17 OAQ        -22.2930     0.8610    -0.2070 o          1 HH9      -0.707000
     18 OAS        -20.1500    -0.7620    -4.4440 o          1 HH9      -0.543100
     19 CL1        -24.9530     3.1650    -5.4530 cl         1 HH9      -0.223000
     20 H1         -19.3600    -1.3780    -6.8090 ha         1 HH9       0.131000
     21 H2         -22.7240     1.5000    -9.0250 ha         1 HH9       0.129000
     22 H3         -19.4400    -1.2520    -9.2730 ha         1 HH9       0.109000
     23 H4         -21.1250     0.1920   -10.3760 ha         1 HH9       0.106000
     24 H5         -21.3810     0.1650    -2.4010 ha         1 HH9       0.157000
     25 H6         -24.7070     2.8280    -2.6390 ha         1 HH9       0.152000
@<TRIPOS>BOND
     1     1     2 ar  
     2     1     3 ar  
     3     1     7 1   
     4     2     4 ar  
     5     2    15 1   
     6     3     5 ar  
     7     3    20 1   
     8     4     6 ar  
     9     4    21 1   
    10     5     6 ar  
    11     5    22 1   
    12     6    23 1   
    13     7     8 1   
    14     7    18 2   
    15     8     9 ar  
    16     8    10 ar  
    17     9    12 ar  
    18     9    15 1   
    19    10    11 ar  
    20    10    24 1   
    21    11    13 ar  
    22    11    14 1   
    23    12    13 ar  
    24    12    19 1   
    25    13    25 1   
    26    14    16 1   
    27    14    17 1   
@<TRIPOS>SUBSTRUCTURE
     1 HH9         1 TEMP              0 ****  ****    0 ROOT
