@<TRIPOS>MOLECULE
HH9
   25    27     1     0     0
SMALL
No Charge or Current Charge


@<TRIPOS>ATOM
      1 CAA        -20.9840    -0.0340    -6.5600 ca         1 HH9      -0.234600
      2 CAB        -21.9390     0.7680    -7.2080 ca         1 HH9       0.179100
      3 CAC        -20.0530    -0.7660    -7.3290 ca         1 HH9      -0.026000
      4 CAD        -21.9670     0.8420    -8.6100 ca         1 HH9      -0.154000
      5 CAE        -20.0850    -0.6890    -8.7320 ca         1 HH9      -0.170000
      6 CAF        -21.0400     0.1140    -9.3750 ca         1 HH9      -0.066000
      7 CAG        -20.9790    -0.0930    -5.0670 c          1 HH9       0.608300
      8 CAH        -22.0130     0.7240    -4.3600 ca         1 HH9      -0.251600
      9 CAJ        -22.9190     1.4900    -5.1150 ca         1 HH9       0.130100
     10 CAK        -22.0910     0.7370    -2.9500 ca         1 HH9      -0.002000
     11 CAL        -23.0710     1.5120    -2.2870 ca         1 HH9      -0.165600
     12 CAM        -23.8980     2.2650    -4.4640 ca         1 HH9       0.057000
     13 CAN        -23.9730     2.2760    -3.0620 ca         1 HH9      -0.019000
     14 CAO        -23.1540     1.5240    -0.7750 c          1 HH9       0.720600
     15 OAI        -22.8610     1.4940    -6.4910 os         1 HH9      -0.208200
     16 OAP        -24.0160     2.2080    -0.2450 o          1 HH9      -0.707000
     17 OAQ        -22.3550     0.8490    -0.1420 o          1 HH9      -0.707000
     18 OAS        -20.1680    -0.7770    -4.4520 o          1 HH9      -0.543100
     19 Cl1        -25.0440     3.2340    -5.3930 cl         1 HH9      -0.223000
     20 H1         -19.3060    -1.3930    -6.8440 ha         1 HH9       0.131000
     21 H2         -22.7090     1.4650    -9.1030 ha         1 HH9       0.129000
     22 H3         -19.3660    -1.2540    -9.3210 ha         1 HH9       0.109000
     23 H4         -21.0630     0.1720   -10.4610 ha         1 HH9       0.106000
     24 H5         -21.3890     0.1420    -2.3670 ha         1 HH9       0.157000
     25 H6         -24.7370     2.8820    -2.5820 ha         1 HH9       0.152000
@<TRIPOS>BOND
     1     1     2 ar  
     2     1     3 ar  
     3     1     7 1   
     4     2     4 ar  
     5     2    15 1   
     6     3     5 ar  
     7     3    20 1   
     8     4     6 ar  
     9     4    21 1   
    10     5     6 ar  
    11     5    22 1   
    12     6    23 1   
    13     7     8 1   
    14     7    18 2   
    15     8     9 ar  
    16     8    10 ar  
    17     9    12 ar  
    18     9    15 1   
    19    10    11 ar  
    20    10    24 1   
    21    11    13 ar  
    22    11    14 1   
    23    12    13 ar  
    24    12    19 1   
    25    13    25 1   
    26    14    16 1   
    27    14    17 1   
@<TRIPOS>SUBSTRUCTURE
     1 HH9         1 TEMP              0 ****  ****    0 ROOT
