@<TRIPOS>MOLECULE
HHA
   19    19     1     0     0
SMALL
No Charge or Current Charge


@<TRIPOS>ATOM
      1 O1           2.4430    -0.9380     0.3030 o          1 HHA      -0.726500
      2 C            1.9510     0.1770     0.2010 c          1 HHA       0.707200
      3 O2           2.6140     1.1970     0.3340 o          1 HHA      -0.726500
      4 C1           0.4730     0.3110    -0.0930 ce         1 HHA      -0.121400
      5 C6          -0.1690     1.5180    -0.2320 cf         1 HHA      -0.226000
      6 C5          -1.6030     1.6220    -0.4520 cf         1 HHA      -0.117000
      7 C4          -2.4040     0.5510    -0.2640 c2         1 HHA      -0.309200
      8 C3          -1.8450    -0.7740     0.2240 c6         1 HHA       0.210500
      9 O3          -1.9310    -0.7520     1.6470 oh         1 HHA      -0.659000
     10 C2          -0.3520    -0.9870    -0.2500 c6         1 HHA       0.201700
     11 N2          -0.2860    -1.4980    -1.6500 n8         1 HHA      -0.992200
     12 H6           0.4030     2.4460    -0.1620 ha         1 HHA       0.191000
     13 H5          -2.0170     2.5850    -0.7610 ha         1 HHA       0.147000
     14 H4          -3.4790     0.6180    -0.4270 ha         1 HHA       0.145000
     15 H3          -2.4660    -1.5970    -0.1620 h1         1 HHA       0.011700
     16 H1          -1.5970     0.1330     1.9030 ho         1 HHA       0.421000
     17 H2           0.0800    -1.7730     0.3890 h1         1 HHA       0.059700
     18 HN21         0.6890    -1.7490    -1.8480 hn         1 HHA       0.391000
     19 HN22        -0.7820    -2.3940    -1.6940 hn         1 HHA       0.391000
@<TRIPOS>BOND
     1     1     2 1   
     2     2     3 1   
     3     2     4 1   
     4     4     5 2   
     5     4    10 1   
     6     5     6 1   
     7     5    12 1   
     8     6     7 2   
     9     6    13 1   
    10     7     8 1   
    11     7    14 1   
    12     8     9 1   
    13     8    10 1   
    14     8    15 1   
    15     9    16 1   
    16    10    11 1   
    17    10    17 1   
    18    11    18 1   
    19    11    19 1   
@<TRIPOS>SUBSTRUCTURE
     1 HHA         1 TEMP              0 ****  ****    0 ROOT
