@<TRIPOS>MOLECULE
HHA
   19    19     1     0     0
SMALL
bcc


@<TRIPOS>ATOM
      1 H1           2.4570    -1.0330    -0.0440 o          1 HHA      -0.566500
      2 H            2.0220     0.1370     0.0320 c          1 HHA       0.368000
      3 H2           2.7030     1.1700     0.1830 o          1 HHA      -0.566500
      4 H1           0.5190     0.2960    -0.0920 c2         1 HHA      -0.098000
      5 H6          -0.0440     1.4970    -0.2750 c2         1 HHA      -0.176000
      6 H5          -1.4780     1.6460    -0.4720 c2         1 HHA      -0.067000
      7 H4          -2.3110     0.6240    -0.2600 c2         1 HHA      -0.255000
      8 H3          -1.7880    -0.6800     0.2700 c6         1 HHA       0.072000
      9 H3          -1.8350    -0.6890     1.6900 oh         1 HHA      -0.324000
     10 H2          -0.3400    -0.9420    -0.1410 c6         1 HHA       0.000000
     11 H2          -0.3290    -1.4500    -1.5140 n8         1 HHA      -0.314000
     12 H6           0.5760     2.3850    -0.2940 ha         1 HHA       0.141000
     13 H5          -1.8570     2.6100    -0.7900 ha         1 HHA       0.097000
     14 H4          -3.3810     0.7420    -0.3910 ha         1 HHA       0.095000
     15 H3          -2.3980    -1.5040    -0.1280 ha         1 HHA       0.051000
     16 H1          -2.7310    -0.4670     1.9630 ha         1 HHA       0.181000
     17 H2           0.0620    -1.6750     0.5720 ha         1 HHA       0.099000
     18 HN21         0.6370    -1.6040    -1.7770 ha         1 HHA       0.131000
     19 HN22        -0.7610    -2.3670    -1.5260 ha         1 HHA       0.131000
@<TRIPOS>BOND
     1     1     2 1   
     2     2     3 1   
     3     2     4 1   
     4     4     5 2   
     5     4    10 1   
     6     5     6 1   
     7     5    12 1   
     8     6     7 2   
     9     6    13 1   
    10     7     8 1   
    11     7    14 1   
    12     8     9 1   
    13     8    10 1   
    14     8    15 1   
    15     9    16 1   
    16    10    11 1   
    17    10    17 1   
    18    11    18 1   
    19    11    19 1   
@<TRIPOS>SUBSTRUCTURE
     1 HHA         1 TEMP              0 ****  ****    0 ROOT
