@<TRIPOS>MOLECULE
HHA
   19    19     1     0     0
SMALL
bcc


@<TRIPOS>ATOM
      1 O1           2.4570    -1.0330    -0.0440 o          1 HHA      -0.831800
      2 C            2.0220     0.1370     0.0320 c          1 HHA       0.917800
      3 O2           2.7030     1.1700     0.1830 o          1 HHA      -0.831800
      4 C1           0.5190     0.2960    -0.0920 ce         1 HHA      -0.121400
      5 C6          -0.0440     1.4970    -0.2750 cf         1 HHA      -0.176000
      6 C5          -1.4780     1.6460    -0.4720 cf         1 HHA      -0.067000
      7 C4          -2.3110     0.6240    -0.2600 c2         1 HHA      -0.259200
      8 C3          -1.7880    -0.6800     0.2700 c6         1 HHA       0.187300
      9 O3          -1.8350    -0.6890     1.6900 oh         1 HHA      -0.596800
     10 C2          -0.3400    -0.9420    -0.1410 c6         1 HHA       0.201700
     11 N2          -0.3290    -1.4500    -1.5140 n8         1 HHA      -0.881800
     12 H6           0.5760     2.3850    -0.2940 ha         1 HHA       0.141000
     13 H5          -1.8570     2.6100    -0.7900 ha         1 HHA       0.097000
     14 H4          -3.3810     0.7420    -0.3910 ha         1 HHA       0.095000
     15 H3          -2.3980    -1.5040    -0.1280 h1         1 HHA       0.011700
     16 H1          -2.7310    -0.4670     1.9630 ho         1 HHA       0.382000
     17 H2           0.0620    -1.6750     0.5720 h1         1 HHA       0.059700
     18 HN21         0.6370    -1.6040    -1.7770 hn         1 HHA       0.335800
     19 HN22        -0.7610    -2.3670    -1.5260 hn         1 HHA       0.335800
@<TRIPOS>BOND
     1     1     2 1   
     2     2     3 1   
     3     2     4 1   
     4     4     5 2   
     5     4    10 1   
     6     5     6 1   
     7     5    12 1   
     8     6     7 2   
     9     6    13 1   
    10     7     8 1   
    11     7    14 1   
    12     8     9 1   
    13     8    10 1   
    14     8    15 1   
    15     9    16 1   
    16    10    11 1   
    17    10    17 1   
    18    11    18 1   
    19    11    19 1   
@<TRIPOS>SUBSTRUCTURE
     1 HHA         1 TEMP              0 ****  ****    0 ROOT
