@<TRIPOS>MOLECULE
HHB
   27    28     1     0     0
SMALL
No Charge or Current Charge


@<TRIPOS>ATOM
      1 C4           2.1630     1.7420    -0.1180 ca         1 HHB      -0.124000
      2 C5           0.9700     2.2930     0.3760 ca         1 HHB      -0.100000
      3 C6          -0.1910     1.5060     0.4450 ca         1 HHB      -0.154000
      4 C11         -4.4740     0.9370    -0.2400 ca         1 HHB       0.154900
      5 C7          -0.1690     0.1650     0.0140 ca         1 HHB       0.278000
      6 C8          -2.6690    -0.4400     0.0750 ca         1 HHB       0.392900
      7 C9          -3.5380    -1.5060     0.3350 ca         1 HHB      -0.299000
      8 C10         -4.9180    -1.2480     0.2940 ca         1 HHB       0.125900
      9 C12          1.0340    -0.3820    -0.4630 ca         1 HHB      -0.160000
     10 N1          -1.2970    -0.6620     0.0780 nu         1 HHB      -0.914900
     11 N2          -5.3930    -0.0200     0.0060 nb         1 HHB      -0.237000
     12 C3           2.2040     0.3990    -0.5370 ca         1 HHB       0.036700
     13 N3          -3.1340     0.7860    -0.2250 nb         1 HHB      -0.247000
     14 O1           4.0870    -1.9230     0.4480 o          1 HHB      -0.724000
     15 C1           4.3140    -0.7740     0.0980 c          1 HHB       0.724000
     16 O2           5.0690    -0.0220     0.6960 o          1 HHB      -0.724000
     17 C2           3.5000    -0.2010    -1.0700 c3         1 HHB      -0.195100
     18 H1           3.0590     2.3560    -0.1660 ha         1 HHB       0.111000
     19 H2           0.9470     3.3280     0.7110 ha         1 HHB       0.093000
     20 H3          -1.0970     1.9410     0.8530 ha         1 HHB       0.130000
     21 H4          -4.8520     1.9290    -0.4780 h5         1 HHB       0.036100
     22 H5          -3.1670    -2.5000     0.5660 ha         1 HHB       0.126000
     23 H6          -5.6500    -2.0290     0.4920 h4         1 HHB       0.008100
     24 H7           1.0630    -1.4190    -0.7850 ha         1 HHB       0.103000
     25 H8          -1.0680    -1.6540     0.0520 hn         1 HHB       0.494000
     26 H10          3.2240    -1.0020    -1.7670 hc         1 HHB       0.032700
     27 H11          4.0560     0.6100    -1.5550 hc         1 HHB       0.032700
@<TRIPOS>BOND
     1     1     2 ar  
     2     1    12 ar  
     3     1    18 1   
     4     2     3 ar  
     5     2    19 1   
     6     3     5 ar  
     7     3    20 1   
     8     4    11 ar  
     9     4    13 ar  
    10     4    21 1   
    11     5     9 ar  
    12     5    10 1   
    13     6     7 ar  
    14     6    10 1   
    15     6    13 ar  
    16     7     8 ar  
    17     7    22 1   
    18     8    11 ar  
    19     8    23 1   
    20     9    12 ar  
    21     9    24 1   
    22    10    25 1   
    23    12    17 1   
    24    14    15 1   
    25    15    16 1   
    26    15    17 1   
    27    17    26 1   
    28    17    27 1   
@<TRIPOS>SUBSTRUCTURE
     1 HHB         1 TEMP              0 ****  ****    0 ROOT
