@<TRIPOS>MOLECULE
HHB
   27    28     1     0     0
SMALL
abcg2


@<TRIPOS>ATOM
      1 C4           2.0880     1.7980    -0.1440 ca         1 HHB      -0.124000
      2 C5           0.8580     2.3440     0.1840 ca         1 HHB      -0.100000
      3 C6          -0.3010     1.5790     0.1850 ca         1 HHB      -0.154000
      4 C11         -4.4230     0.8310     0.4560 ca         1 HHB       0.154900
      5 C7          -0.2200     0.2280    -0.1580 ca         1 HHB       0.278000
      6 C8          -2.6260    -0.4720    -0.0040 ca         1 HHB       0.392900
      7 C9          -3.4920    -1.5790    -0.1170 ca         1 HHB      -0.299000
      8 C10         -4.8260    -1.3430     0.0830 ca         1 HHB       0.125900
      9 C12          1.0280    -0.3140    -0.4870 ca         1 HHB      -0.160000
     10 N1          -1.2990    -0.6570    -0.1980 nu         1 HHB      -0.914900
     11 N2          -5.3200    -0.1320     0.3740 nb         1 HHB      -0.237000
     12 C3           2.1850     0.4500    -0.4850 ca         1 HHB       0.036700
     13 N3          -3.1130     0.7330     0.2850 nb         1 HHB      -0.247000
     14 O1           3.7530    -0.6630     1.4990 o          1 HHB      -0.724000
     15 C1           4.2800    -0.7470     0.3770 c          1 HHB       0.724000
     16 O2           5.3840    -1.2570     0.1000 o          1 HHB      -0.724000
     17 C2           3.5030    -0.1660    -0.8330 c3         1 HHB      -0.195100
     18 H1           2.9750     2.4200    -0.1410 ha         1 HHB       0.111000
     19 H2           0.7880     3.3930     0.4440 ha         1 HHB       0.093000
     20 H3          -1.2470     2.0260     0.4400 ha         1 HHB       0.130000
     21 H4          -4.7930     1.8240     0.6890 h5         1 HHB       0.036100
     22 H5          -3.1240    -2.5680    -0.3520 ha         1 HHB       0.126000
     23 H6          -5.5390    -2.1560     0.0080 h4         1 HHB       0.008100
     24 H7           1.0920    -1.3640    -0.7560 ha         1 HHB       0.103000
     25 H8          -1.0430    -1.6050    -0.4280 hn         1 HHB       0.494000
     26 H10          3.3630    -0.9680    -1.5640 hc         1 HHB       0.032700
     27 H11          4.1430     0.5740    -1.3220 hc         1 HHB       0.032700
@<TRIPOS>BOND
     1     1     2 ar  
     2     1    12 ar  
     3     1    18 1   
     4     2     3 ar  
     5     2    19 1   
     6     3     5 ar  
     7     3    20 1   
     8     4    11 ar  
     9     4    13 ar  
    10     4    21 1   
    11     5     9 ar  
    12     5    10 1   
    13     6     7 ar  
    14     6    10 1   
    15     6    13 ar  
    16     7     8 ar  
    17     7    22 1   
    18     8    11 ar  
    19     8    23 1   
    20     9    12 ar  
    21     9    24 1   
    22    10    25 1   
    23    12    17 1   
    24    14    15 1   
    25    15    16 1   
    26    15    17 1   
    27    17    26 1   
    28    17    27 1   
@<TRIPOS>SUBSTRUCTURE
     1 HHB         1 TEMP              0 ****  ****    0 ROOT
