@<TRIPOS>MOLECULE
HHC
   37    38     1     0     0
SMALL
bcc


@<TRIPOS>ATOM
      1 C10        -17.5440   -31.3390    36.1210 ca         1 HHC      -0.124600
      2 C13        -16.8210   -31.0400    39.7860 ce         1 HHC       0.402200
      3 C15        -16.5820   -30.8840    42.2830 c5         1 HHC      -0.038300
      4 C02        -20.0840   -26.6960    33.2570 c          1 HHC       0.678100
      5 C04        -19.3360   -27.4740    34.3350 c3         1 HHC       0.068500
      6 C08        -18.1150   -30.6000    34.9440 c          1 HHC       0.677700
      7 C11        -17.4900   -30.8000    37.3990 ca         1 HHC      -0.182300
      8 C12        -16.9130   -31.5580    38.4110 ca         1 HHC       0.370000
      9 C16        -16.9320   -29.6000    41.5180 c5         1 HHC      -0.014500
     10 C55        -16.4530   -33.2770    36.9960 ca         1 HHC       0.402200
     11 C56        -16.9980   -32.6000    35.9160 ca         1 HHC      -0.180300
     12 N05        -17.9160   -27.2590    34.1810 n8         1 HHC      -0.873800
     13 N07        -19.1390   -29.7770    35.2200 ns         1 HHC      -0.573900
     14 N53        -17.2230   -29.8920    40.1300 n2         1 HHC      -0.590900
     15 N54        -16.4120   -32.7700    38.2190 nb         1 HHC      -0.635000
     16 O03        -19.6410   -26.5990    32.1230 o          1 HHC      -0.585100
     17 O09        -17.6580   -30.7820    33.8280 o          1 HHC      -0.580100
     18 S14        -16.0920   -32.0830    41.0050 ss         1 HHC      -0.214300
     19 H151       -17.4440   -31.2730    42.8210 h1         1 HHC       0.092200
     20 H152       -15.7690   -30.7370    42.9910 h1         1 HHC       0.092200
     21 H3         -19.6270   -27.0970    35.3210 h1         1 HHC       0.057700
     22 H111       -17.8600   -29.8090    37.6240 ha         1 HHC       0.160000
     23 H4         -17.8080   -29.1200    41.9720 h1         1 HHC       0.102700
     24 H551       -16.0340   -34.2670    36.8650 h4         1 HHC       0.034100
     25 H561       -17.0010   -33.0590    34.9370 ha         1 HHC       0.167000
     26 H011       -21.8560   -25.7140    32.9740 hn         1 HHC       0.314000
     27 H012       -21.5950   -26.2590    34.5850 hn         1 HHC       0.314000
     28 H5         -17.4180   -27.7210    34.9310 hn         1 HHC       0.359800
     29 H051       -17.5920   -27.6720    33.3160 hn         1 HHC       0.359800
     30 H071       -19.5080   -29.7470    36.1570 hn         1 HHC       0.319500
     31 C17        -15.8390   -28.5450    41.5420 c          1 HHC       0.581900
     32 O52        -14.9490   -28.5140    42.3470 o          1 HHC      -0.496100
     33 C06        -19.7910   -28.9460    34.2380 c3         1 HHC       0.055000
     34 N01        -21.2650   -26.1900    33.6370 nt         1 HHC      -0.678000
     35 H2         -15.9420   -27.7770    40.7560 h4         1 HHC       0.014200
     36 H061       -20.8700   -29.0170    34.3880 h1         1 HHC       0.071700
     37 H062       -19.5710   -29.3360    33.2440 h1         1 HHC       0.071700
@<TRIPOS>BOND
     1     1     6 1   
     2     1     7 ar  
     3     1    11 ar  
     4     2     8 1   
     5     2    14 2   
     6     2    18 1   
     7     3     9 1   
     8     3    18 1   
     9     3    19 1   
    10     3    20 1   
    11     4     5 1   
    12     4    16 2   
    13     4    34 1   
    14     5    12 1   
    15     5    21 1   
    16     5    33 1   
    17     6    13 1   
    18     6    17 2   
    19     7     8 ar  
    20     7    22 1   
    21     8    15 ar  
    22     9    14 1   
    23     9    23 1   
    24     9    31 1   
    25    10    11 ar  
    26    10    15 ar  
    27    10    24 1   
    28    11    25 1   
    29    12    28 1   
    30    12    29 1   
    31    13    30 1   
    32    13    33 1   
    33    26    34 1   
    34    27    34 1   
    35    31    32 2   
    36    31    35 1   
    37    33    36 1   
    38    33    37 1   
@<TRIPOS>SUBSTRUCTURE
     1 HHC         1 TEMP              0 ****  ****    0 ROOT
