@<TRIPOS>MOLECULE
HHC
   37    38     1     0     0
SMALL
No Charge or Current Charge


@<TRIPOS>ATOM
      1 C10        -17.3590   -31.1720    36.1570 ca         1 HHC      -0.124600
      2 C13        -16.5270   -30.8330    39.9030 ce         1 HHC       0.402200
      3 C15        -16.9570   -31.1780    42.3270 c5         1 HHC       0.009600
      4 C02        -20.2620   -26.6570    33.0980 c          1 HHC       0.611100
      5 C04        -19.2300   -27.7140    33.6400 c3         1 HHC       0.068500
      6 C08        -18.2140   -30.5570    35.0690 c          1 HHC       0.610700
      7 C11        -17.3560   -30.7090    37.4960 ca         1 HHC      -0.099000
      8 C12        -16.5320   -31.3310    38.4670 ca         1 HHC       0.304700
      9 C16        -17.2640   -29.7460    41.8020 c5         1 HHC      -0.014500
     10 C55        -15.7230   -32.8280    36.8680 ca         1 HHC       0.336900
     11 C56        -16.5130   -32.2610    35.8570 ca         1 HHC      -0.097000
     12 N05        -18.3600   -28.3750    32.6040 n8         1 HHC      -0.984200
     13 N07        -19.0200   -29.4970    35.4330 ns         1 HHC      -0.506900
     14 N53        -17.2880   -29.8470    40.2990 n2         1 HHC      -0.590900
     15 N54        -15.7250   -32.3810    38.1430 nb         1 HHC      -0.635000
     16 O03        -20.6410   -26.6140    31.9370 o          1 HHC      -0.585100
     17 O09        -18.1930   -30.9710    33.9180 o          1 HHC      -0.580100
     18 S14        -15.6740   -31.7870    41.1570 ss         1 HHC      -0.262200
     19 H151       -17.8450   -31.8210    42.2500 h1         1 HHC       0.092200
     20 H152       -16.6020   -31.2030    43.3660 h1         1 HHC       0.092200
     21 H3         -18.5570   -27.1510    34.3020 h1         1 HHC       0.057700
     22 H111       -17.9810   -29.8750    37.7990 ha         1 HHC       0.142000
     23 H4         -18.2380   -29.3990    42.1730 h1         1 HHC       0.102700
     24 H551       -15.0660   -33.6690    36.6500 h4         1 HHC       0.034100
     25 H561       -16.4610   -32.6730    34.8530 ha         1 HHC       0.149000
     26 H011       -21.3950   -25.0590    33.6870 hn         1 HHC       0.314000
     27 H012       -20.4160   -25.7760    34.9520 hn         1 HHC       0.314000
     28 H5         -18.0670   -29.2920    32.9790 hn         1 HHC       0.415000
     29 H051       -18.9460   -28.6390    31.8020 hn         1 HHC       0.415000
     30 H071       -18.9810   -29.2130    36.4030 hn         1 HHC       0.319500
     31 C17        -16.2090   -28.7100    42.3170 c          1 HHC       0.581900
     32 O52        -15.2230   -28.9470    43.0100 o          1 HHC      -0.496100
     33 C06        -19.9390   -28.7690    34.5360 c3         1 HHC       0.055000
     34 N01        -20.7350   -25.7580    33.9940 nt         1 HHC      -0.611000
     35 H2         -16.4220   -27.6660    41.9960 h4         1 HHC       0.014200
     36 H061       -20.6820   -28.2640    35.1670 h1         1 HHC       0.071700
     37 H062       -20.4850   -29.4870    33.9080 h1         1 HHC       0.071700
@<TRIPOS>BOND
     1     1     6 1   
     2     1     7 ar  
     3     1    11 ar  
     4     2     8 1   
     5     2    14 2   
     6     2    18 1   
     7     3     9 1   
     8     3    18 1   
     9     3    19 1   
    10     3    20 1   
    11     4     5 1   
    12     4    16 2   
    13     4    34 1   
    14     5    12 1   
    15     5    21 1   
    16     5    33 1   
    17     6    13 1   
    18     6    17 2   
    19     7     8 ar  
    20     7    22 1   
    21     8    15 ar  
    22     9    14 1   
    23     9    23 1   
    24     9    31 1   
    25    10    11 ar  
    26    10    15 ar  
    27    10    24 1   
    28    11    25 1   
    29    12    28 1   
    30    12    29 1   
    31    13    30 1   
    32    13    33 1   
    33    26    34 1   
    34    27    34 1   
    35    31    32 2   
    36    31    35 1   
    37    33    36 1   
    38    33    37 1   
@<TRIPOS>SUBSTRUCTURE
     1 HHC         1 TEMP              0 ****  ****    0 ROOT
