@<TRIPOS>MOLECULE
HHD
   22    21     1     0     0
SMALL
bcc


@<TRIPOS>ATOM
      1 O5           5.0180    -0.6950     0.1140 o          1 HHD      -0.861300
      2 CZ           3.9880     0.0020    -0.0160 c          1 HHD       0.924600
      3 O4           3.9540     1.2340    -0.2030 o          1 HHD      -0.861300
      4 CE           2.6500    -0.7540     0.0590 c3         1 HHD      -0.200400
      5 CD           1.3920     0.0970    -0.0080 c3         1 HHD      -0.053400
      6 CG           0.1220    -0.7430     0.0760 c3         1 HHD      -0.114400
      7 CB          -1.1710     0.0600    -0.0350 c3         1 HHD       0.155100
      8 O3          -1.2520     1.0650     0.9630 oh         1 HHD      -0.591800
      9 CA          -2.3980    -0.8410    -0.0030 c3         1 HHD      -0.233400
     10 C           -3.7230    -0.0840    -0.1970 c          1 HHD       0.934600
     11 O2          -3.7560     0.7510    -1.1250 o          1 HHD      -0.856800
     12 O1          -4.6670    -0.3790     0.5630 o          1 HHD      -0.856800
     13 HE1C         2.6360    -1.4950    -0.7500 hc         1 HHD       0.008200
     14 HE2C         2.6440    -1.3490     0.9810 hc         1 HHD       0.008200
     15 HD1C         1.4010     0.8310     0.8010 hc         1 HHD       0.042200
     16 HD2C         1.3830     0.6720    -0.9390 hc         1 HHD       0.042200
     17 HG1C         0.1300    -1.4900    -0.7250 hc         1 HHD       0.015200
     18 HG2C         0.1150    -1.3130     1.0150 hc         1 HHD       0.015200
     19 HB          -1.1650     0.6020    -0.9860 h1         1 HHD       0.080700
     20 H3          -1.2470     0.6270     1.8210 ho         1 HHD       0.374000
     21 HA1C        -2.3050    -1.5800    -0.8070 hc         1 HHD       0.013700
     22 HA2C        -2.4110    -1.4100     0.9330 hc         1 HHD       0.013700
@<TRIPOS>BOND
     1     1     2 1   
     2     2     3 1   
     3     2     4 1   
     4     4     5 1   
     5     4    13 1   
     6     4    14 1   
     7     5     6 1   
     8     5    15 1   
     9     5    16 1   
    10     6     7 1   
    11     6    17 1   
    12     6    18 1   
    13     7     8 1   
    14     7     9 1   
    15     7    19 1   
    16     8    20 1   
    17     9    10 1   
    18     9    21 1   
    19     9    22 1   
    20    10    11 1   
    21    10    12 1   
@<TRIPOS>SUBSTRUCTURE
     1 HHD         1 TEMP              0 ****  ****    0 ROOT
