@<TRIPOS>MOLECULE
HHD
   22    21     1     0     0
SMALL
No Charge or Current Charge


@<TRIPOS>ATOM
      1 O5           4.4650     0.3320     1.0260 o          1 HHD      -0.756000
      2 CZ           3.9590     0.0940    -0.0610 c          1 HHD       0.714000
      3 O4           4.3640     0.5690    -1.1110 o          1 HHD      -0.756000
      4 CE           2.7100    -0.8080    -0.1020 c3         1 HHD      -0.200400
      5 CD           1.4280     0.0460     0.0510 c3         1 HHD      -0.053400
      6 CG           0.1280    -0.7960     0.0180 c3         1 HHD      -0.114400
      7 CB          -1.1750     0.0420     0.1130 c3         1 HHD       0.178300
      8 O3          -1.2130     0.7060     1.3790 oh         1 HHD      -0.654000
      9 CA          -2.4410    -0.8310    -0.0430 c3         1 HHD      -0.233400
     10 C           -3.6820     0.0560    -0.2200 c          1 HHD       0.724000
     11 O2          -3.9440     0.4570    -1.3440 o          1 HHD      -0.751500
     12 O1          -4.3560     0.3220     0.7640 o          1 HHD      -0.751500
     13 HE1C         2.6260    -1.3030    -1.0780 hc         1 HHD       0.008200
     14 HE2C         2.7100    -1.5040     0.7460 hc         1 HHD       0.008200
     15 HD1C         1.4810     0.6020     0.9960 hc         1 HHD       0.042200
     16 HD2C         1.3930     0.7910    -0.7540 hc         1 HHD       0.042200
     17 HG1C         0.1120    -1.3670    -0.9180 hc         1 HHD       0.015200
     18 HG2C         0.1500    -1.5300     0.8330 hc         1 HHD       0.015200
     19 HB          -1.1610     0.7800    -0.7040 h1         1 HHD       0.080700
     20 H3          -1.4160     0.0170     2.0450 ho         1 HHD       0.413000
     21 HA1C        -2.2770    -1.4100    -0.9610 hc         1 HHD       0.013700
     22 HA2C        -2.5210    -1.4560     0.8560 hc         1 HHD       0.013700
@<TRIPOS>BOND
     1     1     2 1   
     2     2     3 1   
     3     2     4 1   
     4     4     5 1   
     5     4    13 1   
     6     4    14 1   
     7     5     6 1   
     8     5    15 1   
     9     5    16 1   
    10     6     7 1   
    11     6    17 1   
    12     6    18 1   
    13     7     8 1   
    14     7     9 1   
    15     7    19 1   
    16     8    20 1   
    17     9    10 1   
    18     9    21 1   
    19     9    22 1   
    20    10    11 1   
    21    10    12 1   
@<TRIPOS>SUBSTRUCTURE
     1 HHD         1 TEMP              0 ****  ****    0 ROOT
