@<TRIPOS>MOLECULE
HHE
   84    88     1     0     0
SMALL
abcg2


@<TRIPOS>ATOM
      1 C1         180.8350   200.8490   104.2990 c6         1 HHE       0.113700
      2 C2         181.8870   199.9730   103.5970 c6         1 HHE      -0.071200
      3 C3         181.1880   200.9710   105.7950 c6         1 HHE      -0.071200
      4 C4         181.8430   198.5720   104.2230 c6         1 HHE      -0.077400
      5 C5         181.1460   199.5640   106.4090 c6         1 HHE      -0.077400
      6 C6         182.1710   198.6600   105.7140 c6         1 HHE       0.173000
      7 C7         182.5930   201.5650   105.9650 c6         1 HHE      -0.071400
      8 C8         183.6240   200.6610   105.2730 c6         1 HHE      -0.057700
      9 C9         183.2940   200.5650   103.7760 c6         1 HHE      -0.071400
     10 C10        183.5730   199.2540   105.8910 c6         1 HHE      -0.096400
     11 O11        182.1080   197.3230   106.2360 oh         1 HHE      -0.658000
     12 N12        180.7050   202.1420   103.6450 ns         1 HHE      -0.505900
     13 C13        179.4990   202.7850   100.4110 c3         1 HHE       0.121300
     14 C14        178.6620   202.4930    99.1570 c3         1 HHE       0.175500
     15 C15        179.2710   201.3100    98.3940 c3         1 HHE       0.187800
     16 N16        178.4970   203.6330    98.2510 n8         1 HHE      -0.984200
     17 N17        178.3390   200.6880    97.4570 n3         1 HHE      -0.713600
     18 C18        177.4270   199.8090    98.1740 c6         1 HHE       0.087800
     19 C19        176.4560   199.0210    97.3290 c          1 HHE       0.574000
     20 N20        176.7010   198.9540    96.0030 n          1 HHE      -0.237400
     21 C21        177.7950   199.6750    95.3440 c6         1 HHE       0.126000
     22 C22        178.9510   200.0220    96.2840 c6         1 HHE       0.191200
     23 C23        179.8430   201.0000    95.5120 c3         1 HHE      -0.104600
     24 C24        179.7610   198.7680    96.6510 c3         1 HHE      -0.104600
     25 C25        175.7900   198.2610    95.1530 ca         1 HHE      -0.038000
     26 C26        174.7570   198.9560    94.5320 ca         1 HHE      -0.095000
     27 C27        173.8830   198.3050    93.6720 ca         1 HHE      -0.105000
     28 C28        174.0380   196.9450    93.4270 ca         1 HHE      -0.100000
     29 C29        175.0650   196.2360    94.0390 ca         1 HHE      -0.102000
     30 C30        175.9350   196.8980    94.8960 ca         1 HHE       0.133000
     31 O31        175.5090   198.4390    97.8600 o          1 HHE      -0.558000
     32 CL         177.2260   196.0050    95.6580 cl         1 HHE      -0.201000
     33 C33        178.8870   203.8670   101.2950 c3         1 HHE      -0.101400
     34 C34        179.6010   204.0600   102.6420 c3         1 HHE      -0.137700
     35 C35        179.5300   202.7630   103.4400 c          1 HHE       0.589100
     36 O36        178.4530   202.3120   103.8400 o          1 HHE      -0.605100
     37 C37        178.9870   205.2160   103.4410 c3         1 HHE      -0.065400
     38 O38        180.8170   203.1470    99.9650 oh         1 HHE      -0.674000
     39 C39        179.7240   205.5080   104.7450 c3         1 HHE      -0.093100
     40 H1         179.8590   200.3710   104.2100 h1         1 HHE       0.084700
     41 H2         181.6390   199.9070   102.5350 hc         1 HHE       0.063200
     42 H3         180.4470   201.6100   106.2790 hc         1 HHE       0.063200
     43 H4         180.8520   198.1270   104.0970 hc         1 HHE       0.055700
     44 H5         182.5670   197.9180   103.7320 hc         1 HHE       0.055700
     45 H6         181.3740   199.6140   107.4780 hc         1 HHE       0.055700
     46 H7         180.1500   199.1270   106.3000 hc         1 HHE       0.055700
     47 H8         182.8240   201.6550   107.0290 hc         1 HHE       0.040950
     48 H9         182.6330   202.5720   105.5420 hc         1 HHE       0.040950
     49 H10        184.6260   201.0790   105.4020 hc         1 HHE       0.053700
     50 H11        184.0220   199.9270   103.2680 hc         1 HHE       0.040950
     51 H12        183.3680   201.5530   103.3110 hc         1 HHE       0.040950
     52 H13        184.3030   198.5990   105.4080 hc         1 HHE       0.048200
     53 H14        183.8160   199.2970   106.9570 hc         1 HHE       0.048200
     54 H15        182.3190   197.3620   107.1780 ho         1 HHE       0.440000
     55 H16        181.5370   202.5950   103.3030 hn         1 HHE       0.305500
     56 H17        179.5620   201.8500   100.9800 h1         1 HHE       0.043700
     57 H18        177.6680   202.2140    99.5150 h1         1 HHE       0.068700
     58 H19        179.6430   200.5740    99.1230 h1         1 HHE       0.040700
     59 H20        180.1370   201.6780    97.8520 h1         1 HHE       0.040700
     60 H21        177.9650   204.3700    98.7020 hn         1 HHE       0.398000
     61 H22        179.4080   204.0260    98.0350 hn         1 HHE       0.398000
     62 H25        176.8180   200.3960    98.8610 h1         1 HHE       0.063700
     63 H26        177.9570   199.0670    98.7950 h1         1 HHE       0.063700
     64 H27        178.1650   199.0410    94.5380 h1         1 HHE       0.052200
     65 H28        177.4000   200.5920    94.9000 h1         1 HHE       0.052200
     66 H29        180.8030   201.1490    96.0040 hc         1 HHE       0.044867
     67 H30        180.0440   200.5970    94.5180 hc         1 HHE       0.044867
     68 H31        179.3490   201.9660    95.4040 hc         1 HHE       0.044867
     69 H32        180.5540   199.0230    97.3550 hc         1 HHE       0.044867
     70 H33        179.1410   197.9920    97.0980 hc         1 HHE       0.044867
     71 H34        180.2240   198.3470    95.7570 hc         1 HHE       0.044867
     72 H35        174.6500   200.0140    94.7360 ha         1 HHE       0.128000
     73 H36        173.0830   198.8570    93.1960 ha         1 HHE       0.120000
     74 H37        173.3620   196.4280    92.7590 ha         1 HHE       0.119000
     75 H38        175.1950   195.1780    93.8560 ha         1 HHE       0.130000
     76 H39        178.8990   204.8190   100.7590 hc         1 HHE       0.064200
     77 H40        177.8420   203.6090   101.4870 hc         1 HHE       0.064200
     78 H41        180.6510   204.3030   102.4550 hc         1 HHE       0.043700
     79 H42        178.9940   206.1050   102.8050 hc         1 HHE       0.053700
     80 H43        177.9390   204.9810   103.6460 hc         1 HHE       0.053700
     81 H44        181.4230   203.1070   100.7130 ho         1 HHE       0.437000
     82 H45        179.2740   206.3530   105.2680 hc         1 HHE       0.036367
     83 H46        179.6980   204.6480   105.4190 hc         1 HHE       0.036367
     84 H47        180.7730   205.7490   104.5550 hc         1 HHE       0.036367
@<TRIPOS>BOND
     1     1     2 1   
     2     1     3 1   
     3     1    12 1   
     4     1    40 1   
     5     2     4 1   
     6     2     9 1   
     7     2    41 1   
     8     3     5 1   
     9     3     7 1   
    10     3    42 1   
    11     4     6 1   
    12     4    43 1   
    13     4    44 1   
    14     5     6 1   
    15     5    45 1   
    16     5    46 1   
    17     6    10 1   
    18     6    11 1   
    19     7     8 1   
    20     7    47 1   
    21     7    48 1   
    22     8     9 1   
    23     8    10 1   
    24     8    49 1   
    25     9    50 1   
    26     9    51 1   
    27    10    52 1   
    28    10    53 1   
    29    11    54 1   
    30    12    35 1   
    31    12    55 1   
    32    13    14 1   
    33    13    33 1   
    34    13    38 1   
    35    13    56 1   
    36    14    15 1   
    37    14    16 1   
    38    14    57 1   
    39    15    17 1   
    40    15    58 1   
    41    15    59 1   
    42    16    60 1   
    43    16    61 1   
    44    17    18 1   
    45    17    22 1   
    46    18    19 1   
    47    18    62 1   
    48    18    63 1   
    49    19    20 1   
    50    19    31 2   
    51    20    21 1   
    52    20    25 1   
    53    21    22 1   
    54    21    64 1   
    55    21    65 1   
    56    22    23 1   
    57    22    24 1   
    58    23    66 1   
    59    23    67 1   
    60    23    68 1   
    61    24    69 1   
    62    24    70 1   
    63    24    71 1   
    64    25    26 ar  
    65    25    30 ar  
    66    26    27 ar  
    67    26    72 1   
    68    27    28 ar  
    69    27    73 1   
    70    28    29 ar  
    71    28    74 1   
    72    29    30 ar  
    73    29    75 1   
    74    30    32 1   
    75    33    34 1   
    76    33    76 1   
    77    33    77 1   
    78    34    35 1   
    79    34    37 1   
    80    34    78 1   
    81    35    36 2   
    82    37    39 1   
    83    37    79 1   
    84    37    80 1   
    85    38    81 1   
    86    39    82 1   
    87    39    83 1   
    88    39    84 1   
@<TRIPOS>SUBSTRUCTURE
     1 HHE         1 TEMP              0 ****  ****    0 ROOT
