@<TRIPOS>MOLECULE
HHE
   84    88     1     0     0
SMALL
No Charge or Current Charge


@<TRIPOS>ATOM
      1 C1         181.3490   200.6050   104.2680 c6         1 HHE       0.113700
      2 C2         182.7880   200.1580   103.8600 c6         1 HHE      -0.071200
      3 C3         181.2920   200.7300   105.8250 c6         1 HHE      -0.071200
      4 C4         183.0860   198.7660   104.4920 c6         1 HHE      -0.077400
      5 C5         181.5890   199.3380   106.4590 c6         1 HHE      -0.077400
      6 C6         183.0120   198.8590   106.0450 c6         1 HHE       0.173000
      7 C7         182.3510   201.7570   106.3330 c6         1 HHE      -0.071400
      8 C8         183.7750   201.2900   105.9170 c6         1 HHE      -0.057700
      9 C9         183.8510   201.1820   104.3670 c6         1 HHE      -0.071400
     10 C10        184.0640   199.8940   106.5450 c6         1 HHE      -0.096400
     11 O11        183.2810   197.5780   106.6180 oh         1 HHE      -0.658000
     12 N12        180.9790   201.8680   103.6140 ns         1 HHE      -0.505900
     13 C13        179.3980   202.6940   100.3530 c3         1 HHE       0.121300
     14 C14        178.4360   202.4470    99.1410 c3         1 HHE       0.175500
     15 C15        178.9420   201.2500    98.2590 c3         1 HHE       0.187800
     16 N16        178.2310   203.7000    98.3500 n8         1 HHE      -0.984200
     17 N17        178.0660   200.8310    97.1120 n3         1 HHE      -0.713600
     18 C18        176.6650   200.4710    97.5480 c6         1 HHE       0.087800
     19 C19        175.7070   199.9010    96.4610 c          1 HHE       0.574000
     20 N20        176.3050   199.1810    95.4040 n          1 HHE      -0.237400
     21 C21        177.6640   199.5960    94.9850 c6         1 HHE       0.126000
     22 C22        178.6480   199.7960    96.1840 c6         1 HHE       0.191200
     23 C23        180.0140   200.2620    95.5900 c3         1 HHE      -0.104600
     24 C24        178.9060   198.4250    96.8910 c3         1 HHE      -0.104600
     25 C25        175.5540   198.3480    94.4980 ca         1 HHE      -0.038000
     26 C26        175.4320   198.7410    93.1470 ca         1 HHE      -0.095000
     27 C27        174.5660   198.0590    92.2740 ca         1 HHE      -0.105000
     28 C28        173.7720   197.0050    92.7510 ca         1 HHE      -0.100000
     29 C29        173.8320   196.6470    94.1070 ca         1 HHE      -0.102000
     30 C30        174.6940   197.3290    94.9830 ca         1 HHE       0.133000
     31 O31        174.4890   200.0280    96.5590 o          1 HHE      -0.558000
     32 Cl         174.7600   196.8000    96.6670 cl         1 HHE      -0.201000
     33 C33        178.8010   203.6530   101.4210 c3         1 HHE      -0.101400
     34 C34        179.5880   203.7160   102.7640 c3         1 HHE      -0.137700
     35 C35        179.6960   202.3220   103.4220 c          1 HHE       0.589100
     36 O36        178.7180   201.6620   103.7440 o          1 HHE      -0.605100
     37 C37        178.9660   204.7480   103.7440 c3         1 HHE      -0.065400
     38 O38        180.6490   203.2330    99.8880 oh         1 HHE      -0.674000
     39 C39        179.7550   204.9140   105.0600 c3         1 HHE      -0.093100
     40 H1         180.6320   199.8350   103.9420 h1         1 HHE       0.084700
     41 H2         182.8490   200.0780   102.7650 hc         1 HHE       0.063200
     42 H3         180.2890   201.0580   106.1300 hc         1 HHE       0.063200
     43 H4         182.3670   198.0220   104.1210 hc         1 HHE       0.055700
     44 H5         184.0800   198.4160   104.1790 hc         1 HHE       0.055700
     45 H6         181.5080   199.4010   107.5530 hc         1 HHE       0.055700
     46 H7         180.8320   198.6090   106.1350 hc         1 HHE       0.055700
     47 H8         182.2890   201.8530   107.4260 hc         1 HHE       0.040950
     48 H9         182.1450   202.7580   105.9280 hc         1 HHE       0.040950
     49 H10        184.5200   202.0160   106.2730 hc         1 HHE       0.053700
     50 H11        184.8570   200.8630   104.0620 hc         1 HHE       0.040950
     51 H12        183.6950   202.1680   103.9090 hc         1 HHE       0.040950
     52 H13        185.0780   199.5660   106.2770 hc         1 HHE       0.048200
     53 H14        184.0410   199.9670   107.6410 hc         1 HHE       0.048200
     54 H15        183.2880   197.7020   107.5910 ho         1 HHE       0.440000
     55 H16        181.7260   202.4880   103.3280 hn         1 HHE       0.305500
     56 H17        179.5690   201.7200   100.8330 h1         1 HHE       0.043700
     57 H18        177.4640   202.1540    99.5610 h1         1 HHE       0.068700
     58 H19        179.0960   200.3930    98.9270 h1         1 HHE       0.040700
     59 H20        179.9330   201.5370    97.8860 h1         1 HHE       0.040700
     60 H21        177.9220   204.4390    98.9880 hn         1 HHE       0.398000
     61 H22        179.1630   204.0200    98.0670 hn         1 HHE       0.398000
     62 H25        176.1540   201.3490    97.9660 h1         1 HHE       0.063700
     63 H26        176.6990   199.7070    98.3380 h1         1 HHE       0.063700
     64 H27        178.0750   198.8430    94.2980 h1         1 HHE       0.052200
     65 H28        177.5820   200.5390    94.4250 h1         1 HHE       0.052200
     66 H29        180.8140   200.2700    96.3400 hc         1 HHE       0.044867
     67 H30        180.3460   199.5960    94.7840 hc         1 HHE       0.044867
     68 H31        179.9390   201.2720    95.1700 hc         1 HHE       0.044867
     69 H32        179.6420   198.5140    97.6990 hc         1 HHE       0.044867
     70 H33        177.9920   198.0030    97.3240 hc         1 HHE       0.044867
     71 H34        179.2950   197.6840    96.1830 hc         1 HHE       0.044867
     72 H35        176.0070   199.5810    92.7650 ha         1 HHE       0.128000
     73 H36        174.5000   198.3590    91.2300 ha         1 HHE       0.120000
     74 H37        173.1000   196.4790    92.0760 ha         1 HHE       0.119000
     75 H38        173.2080   195.8400    94.4830 ha         1 HHE       0.130000
     76 H39        178.7270   204.6640   101.0000 hc         1 HHE       0.064200
     77 H40        177.7720   203.3370   101.6380 hc         1 HHE       0.064200
     78 H41        180.6030   204.0690   102.5440 hc         1 HHE       0.043700
     79 H42        178.9080   205.7250   103.2480 hc         1 HHE       0.053700
     80 H43        177.9350   204.4540   103.9810 hc         1 HHE       0.053700
     81 H44        181.1600   203.5120   100.6770 ho         1 HHE       0.437000
     82 H45        179.3010   205.6970   105.6790 hc         1 HHE       0.036367
     83 H46        179.7570   203.9840   105.6420 hc         1 HHE       0.036367
     84 H47        180.7950   205.1980   104.8580 hc         1 HHE       0.036367
@<TRIPOS>BOND
     1     1     2 1   
     2     1     3 1   
     3     1    12 1   
     4     1    40 1   
     5     2     4 1   
     6     2     9 1   
     7     2    41 1   
     8     3     5 1   
     9     3     7 1   
    10     3    42 1   
    11     4     6 1   
    12     4    43 1   
    13     4    44 1   
    14     5     6 1   
    15     5    45 1   
    16     5    46 1   
    17     6    10 1   
    18     6    11 1   
    19     7     8 1   
    20     7    47 1   
    21     7    48 1   
    22     8     9 1   
    23     8    10 1   
    24     8    49 1   
    25     9    50 1   
    26     9    51 1   
    27    10    52 1   
    28    10    53 1   
    29    11    54 1   
    30    12    35 1   
    31    12    55 1   
    32    13    14 1   
    33    13    33 1   
    34    13    38 1   
    35    13    56 1   
    36    14    15 1   
    37    14    16 1   
    38    14    57 1   
    39    15    17 1   
    40    15    58 1   
    41    15    59 1   
    42    16    60 1   
    43    16    61 1   
    44    17    18 1   
    45    17    22 1   
    46    18    19 1   
    47    18    62 1   
    48    18    63 1   
    49    19    20 1   
    50    19    31 2   
    51    20    21 1   
    52    20    25 1   
    53    21    22 1   
    54    21    64 1   
    55    21    65 1   
    56    22    23 1   
    57    22    24 1   
    58    23    66 1   
    59    23    67 1   
    60    23    68 1   
    61    24    69 1   
    62    24    70 1   
    63    24    71 1   
    64    25    26 ar  
    65    25    30 ar  
    66    26    27 ar  
    67    26    72 1   
    68    27    28 ar  
    69    27    73 1   
    70    28    29 ar  
    71    28    74 1   
    72    29    30 ar  
    73    29    75 1   
    74    30    32 1   
    75    33    34 1   
    76    33    76 1   
    77    33    77 1   
    78    34    35 1   
    79    34    37 1   
    80    34    78 1   
    81    35    36 2   
    82    37    39 1   
    83    37    79 1   
    84    37    80 1   
    85    38    81 1   
    86    39    82 1   
    87    39    83 1   
    88    39    84 1   
@<TRIPOS>SUBSTRUCTURE
     1 HHE         1 TEMP              0 ****  ****    0 ROOT
