@<TRIPOS>MOLECULE
HHF
   29    31     1     0     0
SMALL
abcg2


@<TRIPOS>ATOM
      1 CAG         -3.2570     0.3280     0.7380 ca         1 HHF      -0.072000
      2 CAE         -4.5310    -0.2190     0.7460 ca         1 HHF      -0.119000
      3 CAD         -4.7990    -1.3820     0.0370 ca         1 HHF      -0.093000
      4 CAF         -3.7810    -2.0020    -0.6760 ca         1 HHF      -0.119000
      5 CAH         -2.5040    -1.4640    -0.6820 ca         1 HHF      -0.072000
      6 CAN         -2.2300    -0.2870     0.0190 ca         1 HHF      -0.047800
      7 CAP         -0.8730     0.2670     0.0080 cc         1 HHF       0.130900
      8 OAL          0.0780    -0.6950    -0.0010 os         1 HHF      -0.203200
      9 CAR          1.3850    -0.3980    -0.0360 ca         1 HHF       0.216100
     10 CAK          2.2720    -1.4700    -0.0430 ca         1 HHF      -0.263000
     11 CAM          3.6310    -1.2090    -0.0710 ca         1 HHF       0.209100
     12 OAB          4.5510    -2.1780    -0.0800 oh         1 HHF      -0.520100
     13 CAI          4.1030     0.1180    -0.0940 ca         1 HHF      -0.187000
     14 CAJ          3.2120     1.1570    -0.0870 ca         1 HHF       0.018000
     15 CAS          1.8270     0.9230    -0.0580 ca         1 HHF      -0.277600
     16 CAQ          0.8610     1.9970    -0.0570 c          1 HHF       0.571900
     17 OAA          1.1370     3.1940    -0.0900 o          1 HHF      -0.564100
     18 CAO         -0.5340     1.5770    -0.0280 cd         1 HHF      -0.065100
     19 OAC         -1.4600     2.5480    -0.0600 oh         1 HHF      -0.517100
     20 H1          -3.0650     1.2230     1.3130 ha         1 HHF       0.124500
     21 H2          -5.3130     0.2630     1.3160 ha         1 HHF       0.116000
     22 H3          -5.7960    -1.8040     0.0420 ha         1 HHF       0.114000
     23 H4          -3.9810    -2.9090    -1.2300 ha         1 HHF       0.116000
     24 H5          -1.7270    -1.9580    -1.2500 ha         1 HHF       0.124500
     25 H6           1.8930    -2.4860    -0.0230 ha         1 HHF       0.136000
     26 H7           4.1370    -3.0490    -0.0700 ho         1 HHF       0.474000
     27 H8           5.1690     0.3020    -0.1170 ha         1 HHF       0.139000
     28 H9           3.5720     2.1760    -0.1060 ha         1 HHF       0.140000
     29 H10         -0.9860     3.3940    -0.0840 ho         1 HHF       0.488000
@<TRIPOS>BOND
     1     1     2 ar  
     2     1     6 ar  
     3     1    20 1   
     4     2     3 ar  
     5     2    21 1   
     6     3     4 ar  
     7     3    22 1   
     8     4     5 ar  
     9     4    23 1   
    10     5     6 ar  
    11     5    24 1   
    12     6     7 1   
    13     7     8 1   
    14     7    18 2   
    15     8     9 1   
    16     9    10 ar  
    17     9    15 ar  
    18    10    11 ar  
    19    10    25 1   
    20    11    12 1   
    21    11    13 ar  
    22    12    26 1   
    23    13    14 ar  
    24    13    27 1   
    25    14    15 ar  
    26    14    28 1   
    27    15    16 1   
    28    16    17 2   
    29    16    18 1   
    30    18    19 1   
    31    19    29 1   
@<TRIPOS>SUBSTRUCTURE
     1 HHF         1 TEMP              0 ****  ****    0 ROOT
