@<TRIPOS>MOLECULE
HHF
   29    31     1     0     0
SMALL
No Charge or Current Charge


@<TRIPOS>ATOM
      1 CAG         -3.1290     0.1850     0.9170 ca         1 HHF      -0.072000
      2 CAE         -4.4480    -0.2930     1.0170 ca         1 HHF      -0.119000
      3 CAD         -4.8930    -1.3130     0.1610 ca         1 HHF      -0.093000
      4 CAF         -4.0170    -1.8590    -0.7910 ca         1 HHF      -0.119000
      5 CAH         -2.6980    -1.3820    -0.8910 ca         1 HHF      -0.072000
      6 CAN         -2.2440    -0.3490    -0.0440 ca         1 HHF      -0.047800
      7 CAP         -0.8590     0.1250    -0.1450 cc         1 HHF       0.130900
      8 OAL          0.1200    -0.8330    -0.3670 os         1 HHF      -0.203200
      9 CAR          1.4340    -0.4380    -0.1690 ca         1 HHF       0.216100
     10 CAK          2.3920    -1.4580    -0.0570 ca         1 HHF      -0.263000
     11 CAM          3.7490    -1.1460     0.0960 ca         1 HHF       0.209100
     12 OAB          4.6710    -2.1390     0.2110 oh         1 HHF      -0.520100
     13 CAI          4.1620     0.1910     0.1270 ca         1 HHF      -0.187000
     14 CAJ          3.2180     1.2210     0.0000 ca         1 HHF       0.018000
     15 CAS          1.8520     0.9020    -0.1500 ca         1 HHF      -0.277600
     16 CAQ          0.8310     1.9590    -0.2840 c          1 HHF       0.571900
     17 OAA          1.1200     3.1470    -0.3930 o          1 HHF      -0.564100
     18 CAO         -0.5670     1.4810    -0.2340 cd         1 HHF      -0.065100
     19 OAC         -1.5050     2.4790    -0.2530 oh         1 HHF      -0.517100
     20 H1          -2.7920     0.9670     1.5940 ha         1 HHF       0.124500
     21 H2          -5.1220     0.1270     1.7590 ha         1 HHF       0.116000
     22 H3          -5.9140    -1.6830     0.2380 ha         1 HHF       0.114000
     23 H4          -4.3590    -2.6520    -1.4530 ha         1 HHF       0.116000
     24 H5          -2.0290    -1.8130    -1.6320 ha         1 HHF       0.124500
     25 H6           2.0670    -2.4940    -0.0920 ha         1 HHF       0.136000
     26 H7           4.2010    -2.9990     0.1680 ho         1 HHF       0.474000
     27 H8           5.2160     0.4300     0.2440 ha         1 HHF       0.139000
     28 H9           3.5490     2.2580     0.0210 ha         1 HHF       0.140000
     29 H10         -1.0160     3.3340    -0.3230 ho         1 HHF       0.488000
@<TRIPOS>BOND
     1     1     2 ar  
     2     1     6 ar  
     3     1    20 1   
     4     2     3 ar  
     5     2    21 1   
     6     3     4 ar  
     7     3    22 1   
     8     4     5 ar  
     9     4    23 1   
    10     5     6 ar  
    11     5    24 1   
    12     6     7 1   
    13     7     8 1   
    14     7    18 2   
    15     8     9 1   
    16     9    10 ar  
    17     9    15 ar  
    18    10    11 ar  
    19    10    25 1   
    20    11    12 1   
    21    11    13 ar  
    22    12    26 1   
    23    13    14 ar  
    24    13    27 1   
    25    14    15 ar  
    26    14    28 1   
    27    15    16 1   
    28    16    17 2   
    29    16    18 1   
    30    18    19 1   
    31    19    29 1   
@<TRIPOS>SUBSTRUCTURE
     1 HHF         1 TEMP              0 ****  ****    0 ROOT
