@<TRIPOS>MOLECULE
HHH
   19    19     1     0     0
SMALL
bcc


@<TRIPOS>ATOM
      1 O12          2.1320    -1.6980    -0.2450 o          1 HHH      -0.815800
      2 C10          2.3290    -0.4770    -0.2040 c          1 HHH       0.908600
      3 O11          3.1570     0.1940    -0.8600 o          1 HHH      -0.815800
      4 C7           1.4580     0.3620     0.7720 c3         1 HHH       0.027400
      5 O8           1.8970     1.6920     0.7520 oh         1 HHH      -0.641800
      6 C1           0.0030     0.2350     0.3950 ca         1 HHH      -0.058300
      7 C2          -0.7600    -0.8330     0.8550 ca         1 HHH      -0.082000
      8 C3          -2.0900    -0.9840     0.4910 ca         1 HHH      -0.202000
      9 C6          -0.6110     1.1570    -0.4480 ca         1 HHH      -0.082000
     10 C5          -1.9390     1.0200    -0.8240 ca         1 HHH      -0.202000
     11 C4          -2.6890    -0.0540    -0.3560 ca         1 HHH       0.094100
     12 O1          -3.9810    -0.1440    -0.7430 oh         1 HHH      -0.517100
     13 H7           1.5930    -0.0640     1.7770 h1         1 HHH       0.038700
     14 HO8          2.5870     1.6680     0.0610 ho         1 HHH       0.436000
     15 H2          -0.3140    -1.5630     1.5200 ha         1 HHH       0.137000
     16 H3          -2.6620    -1.8220     0.8740 ha         1 HHH       0.115500
     17 H6          -0.0510     2.0060    -0.8170 ha         1 HHH       0.137000
     18 H5          -2.3990     1.7510    -1.4780 ha         1 HHH       0.115500
     19 HO1         -4.3940    -0.9180    -0.3460 ho         1 HHH       0.407000
@<TRIPOS>BOND
     1     1     2 1   
     2     2     3 1   
     3     2     4 1   
     4     4     5 1   
     5     4     6 1   
     6     4    13 1   
     7     5    14 1   
     8     6     7 ar  
     9     6     9 ar  
    10     7     8 ar  
    11     7    15 1   
    12     8    11 ar  
    13     8    16 1   
    14     9    10 ar  
    15     9    17 1   
    16    10    11 ar  
    17    10    18 1   
    18    11    12 1   
    19    12    19 1   
@<TRIPOS>SUBSTRUCTURE
     1 HHH         1 TEMP              0 ****  ****    0 ROOT
