@<TRIPOS>MOLECULE
HHH
   19    19     1     0     0
SMALL
No Charge or Current Charge


@<TRIPOS>ATOM
      1 O12          2.5180    -1.4000    -0.7540 o          1 HHH      -0.710500
      2 C10          2.4220    -0.2230    -0.4340 c          1 HHH       0.698000
      3 O11          3.0410     0.6810    -0.9830 o          1 HHH      -0.710500
      4 C7           1.4850     0.1620     0.7710 c3         1 HHH       0.050600
      5 O8           1.7970     1.4740     1.3120 oh         1 HHH      -0.704000
      6 C1           0.0110     0.1010     0.3690 ca         1 HHH      -0.058300
      7 C2          -0.8700    -0.7760     1.0350 ca         1 HHH      -0.064000
      8 C3          -2.2260    -0.8390     0.6660 ca         1 HHH      -0.184000
      9 C6          -0.4850     0.9140    -0.6720 ca         1 HHH      -0.064000
     10 C5          -1.8410     0.8480    -1.0400 ca         1 HHH      -0.184000
     11 C4          -2.7090    -0.0270    -0.3720 ca         1 HHH       0.094100
     12 O1          -4.0200    -0.0860    -0.7320 oh         1 HHH      -0.556100
     13 H7           1.6630    -0.5940     1.5480 h1         1 HHH       0.038700
     14 HO8          2.3800     1.8920     0.6320 ho         1 HHH       0.475000
     15 H2          -0.5040    -1.4090     1.8410 ha         1 HHH       0.119000
     16 H3          -2.8930    -1.5200     1.1890 ha         1 HHH       0.097500
     17 H6           0.1800     1.5980    -1.1950 ha         1 HHH       0.119000
     18 H5          -2.2150     1.4780    -1.8430 ha         1 HHH       0.097500
     19 HO1         -4.4680    -0.7460    -0.1610 ho         1 HHH       0.446000
@<TRIPOS>BOND
     1     1     2 1   
     2     2     3 1   
     3     2     4 1   
     4     4     5 1   
     5     4     6 1   
     6     4    13 1   
     7     5    14 1   
     8     6     7 ar  
     9     6     9 ar  
    10     7     8 ar  
    11     7    15 1   
    12     8    11 ar  
    13     8    16 1   
    14     9    10 ar  
    15     9    17 1   
    16    10    11 ar  
    17    10    18 1   
    18    11    12 1   
    19    12    19 1   
@<TRIPOS>SUBSTRUCTURE
     1 HHH         1 TEMP              0 ****  ****    0 ROOT
