@<TRIPOS>MOLECULE
HHI
   17    17     1     0     0
SMALL
No Charge or Current Charge


@<TRIPOS>ATOM
      1 C           -6.5430   -12.7980   -25.7940 c          1 HHI       0.629700
      2 N           -5.6980   -11.6180   -23.7550 n2         1 HHI      -0.741100
      3 O           -7.2080   -12.6930   -26.8200 o          1 HHI      -0.702000
      4 CA          -6.3940   -11.5640   -24.8630 ce         1 HHI       0.325300
      5 CB          -7.0970   -10.2710   -25.2790 c3         1 HHI      -0.113400
      6 CG          -6.9540    -9.1030   -24.3300 cc         1 HHI      -0.169300
      7 ND1         -5.9710    -8.1400   -24.4020 na         1 HHI      -0.297500
      8 CD2         -7.7200    -8.7530   -23.2450 cd         1 HHI       0.204900
      9 CE1         -6.1700    -7.2530   -23.3730 cc         1 HHI       0.359400
     10 NE2         -7.2260    -7.6060   -22.6560 nd         1 HHI      -0.690000
     11 OXT         -5.9960   -13.8580   -25.4950 o          1 HHI      -0.702000
     12 HN          -5.7210   -10.6920   -23.3080 hn         1 HHI       0.324400
     13 HB          -6.7330    -9.9730   -26.2700 hc         1 HHI       0.075700
     14 HBA         -8.1650   -10.4800   -25.4160 hc         1 HHI       0.075700
     15 HD2         -8.5940    -9.2630   -22.8560 h4         1 HHI       0.031100
     16 HE1         -5.5290    -6.3950   -23.2060 h5         1 HHI       0.038100
     17 HND1        -5.2260    -8.0770   -25.0860 hn         1 HHI       0.351000
@<TRIPOS>BOND
     1     1     3 1   
     2     1     4 1   
     3     1    11 1   
     4     2     4 2   
     5     2    12 1   
     6     4     5 1   
     7     5     6 1   
     8     5    13 1   
     9     5    14 1   
    10     6     7 1   
    11     6     8 2   
    12     7     9 1   
    13     7    17 1   
    14     8    10 1   
    15     8    15 1   
    16     9    10 2   
    17     9    16 1   
@<TRIPOS>SUBSTRUCTURE
     1 HHI         1 TEMP              0 ****  ****    0 ROOT
