@<TRIPOS>MOLECULE
HHI
   17    17     1     0     0
SMALL
abcg2


@<TRIPOS>ATOM
      1 C           -6.3910   -12.6790   -25.8470 c          1 HHI       0.629700
      2 N           -5.7580   -11.6450   -23.7440 n2         1 HHI      -0.741100
      3 O           -7.0720   -12.4850   -26.8720 o          1 HHI      -0.702000
      4 CA          -6.3930   -11.5160   -24.8300 ce         1 HHI       0.325300
      5 CB          -7.2040   -10.2920   -25.2220 c3         1 HHI      -0.113400
      6 CG          -7.0280    -9.1220   -24.3250 cc         1 HHI      -0.169300
      7 ND1         -5.9730    -8.2550   -24.4160 na         1 HHI      -0.297500
      8 CD2         -7.7530    -8.6620   -23.2590 cd         1 HHI       0.204900
      9 CE1         -6.1030    -7.3340   -23.4410 cc         1 HHI       0.359400
     10 NE2         -7.1720    -7.5490   -22.7180 nd         1 HHI      -0.690000
     11 OXT         -5.7240   -13.6820   -25.5520 o          1 HHI      -0.702000
     12 HN          -5.8560   -10.8120   -23.1640 hn         1 HHI       0.324400
     13 HB          -6.9640   -10.0260   -26.2530 hc         1 HHI       0.075700
     14 HBA         -8.2600   -10.5740   -25.2390 hc         1 HHI       0.075700
     15 HD2         -8.6670    -9.0800   -22.8640 h4         1 HHI       0.031100
     16 HE1         -5.3930    -6.5320   -23.3060 h5         1 HHI       0.038100
     17 HND1        -5.2340    -8.2910   -25.1020 hn         1 HHI       0.351000
@<TRIPOS>BOND
     1     1     3 1   
     2     1     4 1   
     3     1    11 1   
     4     2     4 2   
     5     2    12 1   
     6     4     5 1   
     7     5     6 1   
     8     5    13 1   
     9     5    14 1   
    10     6     7 1   
    11     6     8 2   
    12     7     9 1   
    13     7    17 1   
    14     8    10 1   
    15     8    15 1   
    16     9    10 2   
    17     9    16 1   
@<TRIPOS>SUBSTRUCTURE
     1 HHI         1 TEMP              0 ****  ****    0 ROOT
