@<TRIPOS>MOLECULE
HHJ
   57    61     1     0     0
SMALL
abcg2


@<TRIPOS>ATOM
      1 O6          -6.5930    -4.0290     0.2490 o          1 HHJ      -0.528100
      2 C6          -6.4000    -2.8500    -0.0240 c          1 HHJ       0.661000
      3 N1          -7.4230    -2.0480    -0.4750 nc         1 HHJ      -0.789100
      4 C2          -7.2610    -0.7840    -0.7580 cd         1 HHJ       0.895100
      5 N2          -8.3130    -0.0420    -1.1380 nv         1 HHJ      -1.049200
      6 N3          -6.0660    -0.1270    -0.6650 na         1 HHJ      -0.925200
      7 C4          -5.0150    -0.8710    -0.2360 cc         1 HHJ       0.196000
      8 C5          -5.1150    -2.1960     0.0900 cd         1 HHJ       0.129500
      9 N7          -3.8880    -2.6610     0.4830 nd         1 HHJ      -0.591000
     10 C8          -3.0860    -1.6440     0.3940 cc         1 HHJ       0.416400
     11 N9          -3.7270    -0.5080    -0.0490 na         1 HHJ      -0.204500
     12 C1          -3.1730     0.8020    -0.3150 c5         1 HHJ       0.313300
     13 O4          -1.8160     0.7650    -0.0260 os         1 HHJ      -0.427000
     14 C7          -3.7720     1.9160     0.5540 c5         1 HHJ       0.081300
     15 O2          -4.7920     2.5380    -0.1780 oh         1 HHJ      -0.714000
     16 C3          -2.5370     2.8140     0.8640 c5         1 HHJ       0.113300
     17 O3          -2.6450     4.1330     0.4220 oh         1 HHJ      -0.691000
     18 C11         -1.3970     2.1130     0.1160 c5         1 HHJ       0.155300
     19 C13         -0.0880     2.1660     0.8570 c3         1 HHJ       0.192600
     20 O5           0.9030     1.5710     0.0310 os         1 HHJ      -0.457100
     21 C14          2.1630     1.5740     0.4930 c          1 HHJ       0.640100
     22 O1           2.4910     2.0600     1.5570 o          1 HHJ      -0.542000
     23 N4           2.9960     0.9820    -0.3740 ns         1 HHJ      -0.501900
     24 C9           4.4070     0.8160    -0.0950 c3         1 HHJ       0.119000
     25 C10          5.1200     0.2620    -1.3250 c3         1 HHJ      -0.015200
     26 C12          6.5750     0.0540    -1.0750 cc         1 HHJ      -0.149400
     27 C16          7.6060     0.8370    -1.5140 cd         1 HHJ      -0.149100
     28 C17          7.1750    -0.9870    -0.2920 ca         1 HHJ      -0.094800
     29 C18          6.6670    -2.0860     0.4100 ca         1 HHJ      -0.062000
     30 C19          7.5460    -2.9250     1.0670 ca         1 HHJ      -0.137000
     31 C20          8.9310    -2.6870     1.0400 ca         1 HHJ      -0.090000
     32 C21          9.4610    -1.6120     0.3540 ca         1 HHJ      -0.128000
     33 C22          8.5700    -0.7690    -0.3090 ca         1 HHJ      -0.046200
     34 N23          8.7980     0.3460    -1.0600 na         1 HHJ      -0.221700
     35 H1          -9.1670    -0.5310    -1.3470 hn         1 HHJ       0.498500
     36 H2          -8.1830     0.8410    -1.6020 hn         1 HHJ       0.498500
     37 H3          -5.9910     0.8800    -0.7710 hn         1 HHJ       0.521000
     38 H4          -2.0350    -1.6470     0.6290 h5         1 HHJ       0.076100
     39 H5          -3.3500     1.0400    -1.3750 h2         1 HHJ       0.082700
     40 H6          -4.1520     1.4890     1.4880 h1         1 HHJ       0.067700
     41 H7          -5.3090     3.1000     0.4080 ho         1 HHJ       0.521000
     42 H8          -2.3490     2.7690     1.9420 h1         1 HHJ       0.054700
     43 H9          -3.0260     4.6670     1.1250 ho         1 HHJ       0.514000
     44 H10         -1.2880     2.5770    -0.8740 h1         1 HHJ       0.086700
     45 H11          0.1490     3.2120     1.0660 h1         1 HHJ       0.063700
     46 H12         -0.1730     1.6370     1.8110 h1         1 HHJ       0.063700
     47 H13          2.6140     0.5540    -1.2020 hn         1 HHJ       0.328500
     48 H14          4.8480     1.7770     0.1760 h1         1 HHJ       0.057700
     49 H15          4.5540     0.1410     0.7540 h1         1 HHJ       0.057700
     50 H16          4.6500    -0.6830    -1.6160 hc         1 HHJ       0.048200
     51 H17          4.9820     0.9520    -2.1620 hc         1 HHJ       0.048200
     52 H18          7.5770     1.7210    -2.1320 h4         1 HHJ       0.212000
     53 H19          5.6010    -2.2800     0.4390 ha         1 HHJ       0.114000
     54 H20          7.1670    -3.7800     1.6120 ha         1 HHJ       0.113000
     55 H21          9.5950    -3.3610     1.5660 ha         1 HHJ       0.111000
     56 H22         10.5290    -1.4310     0.3330 ha         1 HHJ       0.113000
     57 H23          9.6970     0.7530    -1.2520 hn         1 HHJ       0.351000
@<TRIPOS>BOND
     1     1     2 2   
     2     2     3 1   
     3     2     8 1   
     4     3     4 2   
     5     4     5 1   
     6     4     6 1   
     7     5    35 1   
     8     5    36 1   
     9     6     7 1   
    10     6    37 1   
    11     7     8 2   
    12     7    11 1   
    13     8     9 1   
    14     9    10 2   
    15    10    11 1   
    16    10    38 1   
    17    11    12 1   
    18    12    13 1   
    19    12    14 1   
    20    12    39 1   
    21    13    18 1   
    22    14    15 1   
    23    14    16 1   
    24    14    40 1   
    25    15    41 1   
    26    16    17 1   
    27    16    18 1   
    28    16    42 1   
    29    17    43 1   
    30    18    19 1   
    31    18    44 1   
    32    19    20 1   
    33    19    45 1   
    34    19    46 1   
    35    20    21 1   
    36    21    22 2   
    37    21    23 1   
    38    23    24 1   
    39    23    47 1   
    40    24    25 1   
    41    24    48 1   
    42    24    49 1   
    43    25    26 1   
    44    25    50 1   
    45    25    51 1   
    46    26    27 2   
    47    26    28 1   
    48    27    34 1   
    49    27    52 1   
    50    28    29 ar  
    51    28    33 ar  
    52    29    30 ar  
    53    29    53 1   
    54    30    31 ar  
    55    30    54 1   
    56    31    32 ar  
    57    31    55 1   
    58    32    33 ar  
    59    32    56 1   
    60    33    34 1   
    61    34    57 1   
@<TRIPOS>SUBSTRUCTURE
     1 HHJ         1 TEMP              0 ****  ****    0 ROOT
