@<TRIPOS>MOLECULE
HHJ
   57    61     1     0     0
SMALL
No Charge or Current Charge


@<TRIPOS>ATOM
      1 O6          -5.0760    -4.4780    -0.1740 o          1 HHJ      -0.528100
      2 C6          -5.0240    -3.2760     0.0500 c          1 HHJ       0.661000
      3 N1          -5.7520    -2.7330     1.0910 nc         1 HHJ      -0.789100
      4 C2          -5.7490    -1.4640     1.3380 cd         1 HHJ       0.895100
      5 N2          -6.5190    -0.9810     2.2590 nv         1 HHJ      -1.049200
      6 N3          -5.0610    -0.5820     0.6000 na         1 HHJ      -0.925200
      7 C4          -4.2140    -1.0260    -0.3920 cc         1 HHJ       0.196000
      8 C5          -4.2180    -2.3210    -0.7640 cd         1 HHJ       0.129500
      9 N7          -3.4340    -2.4320    -1.9140 nd         1 HHJ      -0.591000
     10 C8          -3.0480    -1.1790    -2.2020 cc         1 HHJ       0.416400
     11 N9          -3.5040    -0.2610    -1.2650 na         1 HHJ      -0.204500
     12 C1          -3.3320     1.1930    -1.3200 c5         1 HHJ       0.313300
     13 O4          -1.9410     1.4810    -1.5990 os         1 HHJ      -0.427000
     14 C7          -3.6180     2.0140    -0.0120 c5         1 HHJ       0.081300
     15 O2          -5.0080     2.2630     0.2590 oh         1 HHJ      -0.714000
     16 C3          -2.8800     3.3280    -0.3730 c5         1 HHJ       0.113300
     17 O3          -3.6390     4.0840    -1.3370 oh         1 HHJ      -0.691000
     18 C11         -1.5520     2.7290    -0.9550 c5         1 HHJ       0.155300
     19 C13         -0.4790     2.4260     0.1270 c3         1 HHJ       0.192600
     20 O5           0.7650     2.1230    -0.5360 os         1 HHJ      -0.457100
     21 C14          1.8300     1.7980     0.2450 c          1 HHJ       0.640100
     22 O1           1.8340     1.7450     1.4640 o          1 HHJ      -0.542000
     23 N4           2.9040     1.5420    -0.5560 ns         1 HHJ      -0.501900
     24 C9           4.2250     1.1430    -0.0680 c3         1 HHJ       0.119000
     25 C10          5.0600     0.4450    -1.1590 c3         1 HHJ      -0.015200
     26 C12          6.4070    -0.0080    -0.6590 cc         1 HHJ      -0.149400
     27 C16          7.6500     0.5420    -0.9600 cd         1 HHJ      -0.149100
     28 C17          6.6650    -1.0940     0.2440 ca         1 HHJ      -0.094800
     29 C18          5.7820    -1.9960     0.8570 ca         1 HHJ      -0.062000
     30 C19          6.3270    -2.9790     1.7100 ca         1 HHJ      -0.137000
     31 C20          7.7240    -3.0390     1.9280 ca         1 HHJ      -0.090000
     32 C21          8.5840    -2.1190     1.2930 ca         1 HHJ      -0.128000
     33 C22          8.0140    -1.1530     0.4510 ca         1 HHJ      -0.046200
     34 N23          8.6630    -0.1670    -0.2690 na         1 HHJ      -0.221700
     35 H1          -7.1760    -1.6700     2.5970 hn         1 HHJ       0.498500
     36 H2          -6.9210    -0.0790     2.0560 hn         1 HHJ       0.498500
     37 H3          -5.1650     0.4120     0.7900 hn         1 HHJ       0.521000
     38 H4          -2.4420    -0.8780    -3.0480 h5         1 HHJ       0.076100
     39 H5          -3.9570     1.5570    -2.1450 h2         1 HHJ       0.082700
     40 H6          -3.1450     1.5260     0.8520 h1         1 HHJ       0.067700
     41 H7          -5.2160     3.0780    -0.2660 ho         1 HHJ       0.521000
     42 H8          -2.6880     3.9360     0.5230 h1         1 HHJ       0.054700
     43 H9          -3.1740     4.9430    -1.4800 ho         1 HHJ       0.514000
     44 H10         -1.1090     3.4010    -1.7020 h1         1 HHJ       0.086700
     45 H11         -0.3620     3.3070     0.7720 h1         1 HHJ       0.063700
     46 H12         -0.8090     1.5850     0.7500 h1         1 HHJ       0.063700
     47 H13          2.7470     1.6300    -1.5520 hn         1 HHJ       0.328500
     48 H14          4.7570     2.0360     0.2860 h1         1 HHJ       0.057700
     49 H15          4.0990     0.4620     0.7850 h1         1 HHJ       0.057700
     50 H16          4.5030    -0.4200    -1.5390 hc         1 HHJ       0.048200
     51 H17          5.1900     1.1310    -2.0050 hc         1 HHJ       0.048200
     52 H18          7.8840     1.3840    -1.6080 h4         1 HHJ       0.212000
     53 H19          4.7100    -1.9440     0.6800 ha         1 HHJ       0.114000
     54 H20          5.6700    -3.6930     2.2010 ha         1 HHJ       0.113000
     55 H21          8.1370    -3.8000     2.5880 ha         1 HHJ       0.111000
     56 H22          9.6600    -2.1590     1.4520 ha         1 HHJ       0.113000
     57 H23          9.6630     0.0110    -0.2970 hn         1 HHJ       0.351000
@<TRIPOS>BOND
     1     1     2 2   
     2     2     3 1   
     3     2     8 1   
     4     3     4 2   
     5     4     5 1   
     6     4     6 1   
     7     5    35 1   
     8     5    36 1   
     9     6     7 1   
    10     6    37 1   
    11     7     8 2   
    12     7    11 1   
    13     8     9 1   
    14     9    10 2   
    15    10    11 1   
    16    10    38 1   
    17    11    12 1   
    18    12    13 1   
    19    12    14 1   
    20    12    39 1   
    21    13    18 1   
    22    14    15 1   
    23    14    16 1   
    24    14    40 1   
    25    15    41 1   
    26    16    17 1   
    27    16    18 1   
    28    16    42 1   
    29    17    43 1   
    30    18    19 1   
    31    18    44 1   
    32    19    20 1   
    33    19    45 1   
    34    19    46 1   
    35    20    21 1   
    36    21    22 2   
    37    21    23 1   
    38    23    24 1   
    39    23    47 1   
    40    24    25 1   
    41    24    48 1   
    42    24    49 1   
    43    25    26 1   
    44    25    50 1   
    45    25    51 1   
    46    26    27 2   
    47    26    28 1   
    48    27    34 1   
    49    27    52 1   
    50    28    29 ar  
    51    28    33 ar  
    52    29    30 ar  
    53    29    53 1   
    54    30    31 ar  
    55    30    54 1   
    56    31    32 ar  
    57    31    55 1   
    58    32    33 ar  
    59    32    56 1   
    60    33    34 1   
    61    34    57 1   
@<TRIPOS>SUBSTRUCTURE
     1 HHJ         1 TEMP              0 ****  ****    0 ROOT
