@<TRIPOS>MOLECULE
HHL
   55    57     1     0     0
SMALL
No Charge or Current Charge


@<TRIPOS>ATOM
      1 CBH        132.5020     0.0950    86.7620 c2         1 HHL      -0.296000
      2 CBE        131.7930     1.0960    86.1890 ce         1 HHL       0.034300
      3 FBG        132.4130     1.9210    85.3070 f          1 HHL      -0.182500
      4 CBD        130.3260     1.3450    86.4690 c          1 HHL       0.603300
      5 OBF        129.6790     0.6580    87.2540 o          1 HHL      -0.567100
      6 NBC        129.7980     2.4040    85.7460 ns         1 HHL      -0.134000
      7 CAW        128.4960     2.9770    85.6540 ca         1 HHL      -0.030000
      8 CAX        127.4290     2.5700    86.4870 ca         1 HHL      -0.090000
      9 CAY        126.1780     3.1980    86.3980 ca         1 HHL      -0.102000
     10 CAZ        125.9770     4.2430    85.4880 ca         1 HHL      -0.106000
     11 CBA        127.0230     4.6680    84.6470 ca         1 HHL      -0.085300
     12 CBB        126.7630     5.8100    83.6640 c3         1 HHL      -0.048800
     13 CAV        128.2840     4.0240    84.7150 ca         1 HHL       0.267000
     14 NAU        129.3230     4.4680    83.8720 nu         1 HHL      -0.955900
     15 CAR        130.1720     3.8180    82.9830 ca         1 HHL       0.339900
     16 NAS        129.9700     2.5040    82.7580 nb         1 HHL      -0.202500
     17 CAT        130.8130     1.8990    81.8960 ca         1 HHL       0.098400
     18 NAQ        131.1170     4.5930    82.4220 nb         1 HHL      -0.202500
     19 CAP        131.9590     3.9880    81.5580 ca         1 HHL       0.098400
     20 CAO        131.8500     2.6170    81.2580 ca         1 HHL      -0.016900
     21 OAN        132.7410     2.0400    80.3730 os         1 HHL      -0.317100
     22 CAM        132.6810     0.6400    80.0420 c3         1 HHL       0.203900
     23 CAB        133.8130     0.3230    79.0630 ca         1 HHL      -0.006300
     24 CAC        135.0880    -0.0620    79.5410 ca         1 HHL       0.060000
     25 Cl1        135.4040    -0.1730    81.2820 cl         1 HHL      -0.170000
     26 CAA        133.6060     0.4290    77.6670 ca         1 HHL       0.060000
     27 Cl2        132.0360     0.9420    77.0230 cl         1 HHL      -0.170000
     28 CAF        134.6500     0.1380    76.7630 ca         1 HHL       0.190100
     29 OAH        134.3970     0.2530    75.4070 os         1 HHL      -0.319600
     30 CAL        135.3920    -0.0180    74.4030 c3         1 HHL       0.147400
     31 CAE        135.9130    -0.2570    77.2500 ca         1 HHL      -0.276000
     32 CAD        136.1340    -0.3530    78.6390 ca         1 HHL       0.190100
     33 OAG        137.3630    -0.7280    79.1560 os         1 HHL      -0.319600
     34 CAK        138.4930    -1.0450    78.3250 c3         1 HHL       0.147400
     35 H1         133.5560    -0.0570    86.5330 ha         1 HHL       0.194500
     36 H2         132.0500    -0.5970    87.4730 ha         1 HHL       0.194500
     37 H5         130.4680     2.8550    85.1360 hn         1 HHL       0.170000
     38 H6         127.5500     1.7790    87.2200 ha         1 HHL       0.132000
     39 H7         125.3640     2.8780    87.0450 ha         1 HHL       0.118000
     40 H8         125.0030     4.7250    85.4380 ha         1 HHL       0.114000
     41 H9         127.3780     6.6850    83.9030 hc         1 HHL       0.044033
     42 H10        126.9900     5.5050    82.6350 hc         1 HHL       0.044033
     43 H11        125.7150     6.1330    83.6810 hc         1 HHL       0.044033
     44 H12        129.3230     5.4780    83.7280 hn         1 HHL       0.511000
     45 H13        130.6450     0.8380    81.7260 h4         1 HHL       0.035600
     46 H14        132.7300     4.6090    81.1050 h4         1 HHL       0.035600
     47 H15        131.7100     0.3890    79.5990 h1         1 HHL       0.057700
     48 H16        132.7770     0.0250    80.9450 h1         1 HHL       0.057700
     49 H17        134.9720     0.1370    73.4020 h1         1 HHL       0.046033
     50 H18        136.2540     0.6510    74.5170 h1         1 HHL       0.046033
     51 H19        135.7390    -1.0580    74.4680 h1         1 HHL       0.046033
     52 H20        136.7160    -0.4810    76.5570 ha         1 HHL       0.128000
     53 H21        139.3570    -1.3140    78.9450 h1         1 HHL       0.046033
     54 H22        138.2690    -1.8950    77.6680 h1         1 HHL       0.046033
     55 H23        138.7760    -0.1840    77.7060 h1         1 HHL       0.046033
@<TRIPOS>BOND
     1     1     2 2   
     2     1    35 1   
     3     1    36 1   
     4     2     3 1   
     5     2     4 1   
     6     4     5 2   
     7     4     6 1   
     8     6     7 1   
     9     6    37 1   
    10     7     8 ar  
    11     7    13 ar  
    12     8     9 ar  
    13     8    38 1   
    14     9    10 ar  
    15     9    39 1   
    16    10    11 ar  
    17    10    40 1   
    18    11    12 1   
    19    11    13 ar  
    20    12    41 1   
    21    12    42 1   
    22    12    43 1   
    23    13    14 1   
    24    14    15 1   
    25    14    44 1   
    26    15    16 ar  
    27    15    18 ar  
    28    16    17 ar  
    29    17    20 ar  
    30    17    45 1   
    31    18    19 ar  
    32    19    20 ar  
    33    19    46 1   
    34    20    21 1   
    35    21    22 1   
    36    22    23 1   
    37    22    47 1   
    38    22    48 1   
    39    23    24 ar  
    40    23    26 ar  
    41    24    25 1   
    42    24    32 ar  
    43    26    27 1   
    44    26    28 ar  
    45    28    29 1   
    46    28    31 ar  
    47    29    30 1   
    48    30    49 1   
    49    30    50 1   
    50    30    51 1   
    51    31    32 ar  
    52    31    52 1   
    53    32    33 1   
    54    33    34 1   
    55    34    53 1   
    56    34    54 1   
    57    34    55 1   
@<TRIPOS>SUBSTRUCTURE
     1 HHL         1 TEMP              0 ****  ****    0 ROOT
