@<TRIPOS>MOLECULE
HHL
   55    57     1     0     0
SMALL
bcc


@<TRIPOS>ATOM
      1 CBH        132.6670     0.4610    85.9280 c2         1 HHL      -0.196000
      2 CBE        131.9460     1.5590    86.0640 ce         1 HHL       0.034300
      3 FBG        132.5350     2.7430    86.3200 f          1 HHL      -0.182500
      4 CBD        130.4610     1.6160    85.9250 c          1 HHL       0.670300
      5 OBF        129.8190     0.5950    85.7790 o          1 HHL      -0.567100
      6 NBC        129.9290     2.8590    85.9720 ns         1 HHL      -0.460100
      7 CAW        128.5950     3.1290    85.6250 ca         1 HHL       0.062600
      8 CAX        127.5430     2.5460    86.3190 ca         1 HHL      -0.108000
      9 CAY        126.2390     2.8700    85.9860 ca         1 HHL      -0.120000
     10 CAZ        125.9840     3.7790    84.9690 ca         1 HHL      -0.124000
     11 CBA        127.0210     4.3640    84.2510 ca         1 HHL      -0.085300
     12 CBB        126.7380     5.3220    83.1320 c3         1 HHL      -0.048800
     13 CAV        128.3380     4.0240    84.5790 ca         1 HHL       0.128600
     14 NAU        129.4070     4.6090    83.8820 nu         1 HHL      -0.762300
     15 CAR        130.3030     3.9170    83.1120 ca         1 HHL       0.865900
     16 NAS        130.2120     2.5990    83.0580 nb         1 HHL      -0.728500
     17 CAT        131.1200     1.9490    82.3400 ca         1 HHL       0.426700
     18 NAQ        131.2170     4.6540    82.4750 nb         1 HHL      -0.728500
     19 CAP        132.1030     4.0060    81.7480 ca         1 HHL       0.426700
     20 CAO        132.1160     2.6150    81.6430 ca         1 HHL      -0.147500
     21 OAN        133.0790     2.0500    80.8870 os         1 HHL      -0.293900
     22 CAM        132.9820     0.6580    80.6420 c3         1 HHL       0.180700
     23 CAB        133.9450     0.3330    79.5400 ca         1 HHL      -0.006300
     24 CAC        135.1590    -0.3020    79.7780 ca         1 HHL      -0.031600
     25 CL1        135.6450    -0.7350    81.3800 cl         1 HHL      -0.078400
     26 CAA        133.6260     0.6830    78.2320 ca         1 HHL      -0.031600
     27 CL2        132.1430     1.4970    77.8790 cl         1 HHL      -0.078400
     28 CAF        134.4790     0.3850    77.1690 ca         1 HHL       0.190100
     29 OAH        134.0750     0.7520    75.9510 os         1 HHL      -0.296400
     30 CAL        134.8920     0.4430    74.8350 c3         1 HHL       0.124200
     31 CAE        135.6810    -0.2660    77.4290 ca         1 HHL      -0.294000
     32 CAD        136.0310    -0.6100    78.7290 ca         1 HHL       0.190100
     33 OAG        137.1690    -1.2270    79.0540 os         1 HHL      -0.296400
     34 CAK        138.0800    -1.5760    78.0260 c3         1 HHL       0.124200
     35 H1         133.7430     0.4760    86.0180 ha         1 HHL       0.144500
     36 H2         132.1820    -0.4800    85.7220 ha         1 HHL       0.144500
     37 H5         130.5590     3.6480    85.9590 hn         1 HHL       0.336500
     38 H6         127.7470     1.8640    87.1330 ha         1 HHL       0.150000
     39 H7         125.4180     2.4210    86.5290 ha         1 HHL       0.136000
     40 H8         124.9610     4.0300    84.7180 ha         1 HHL       0.132000
     41 H9         127.0940     6.3300    83.3580 hc         1 HHL       0.044033
     42 H10        127.2240     5.0110    82.2060 hc         1 HHL       0.044033
     43 H11        125.6680     5.3900    82.9430 hc         1 HHL       0.044033
     44 H12        129.3770     5.6040    83.7190 hn         1 HHL       0.455800
     45 H13        131.0300     0.8690    82.3310 h4         1 HHL       0.035600
     46 H14        132.8440     4.5990    81.2210 h4         1 HHL       0.035600
     47 H15        131.9690     0.3870    80.3280 h1         1 HHL       0.057700
     48 H16        133.2060     0.0900    81.5470 h1         1 HHL       0.057700
     49 H17        134.3660     0.8190    73.9620 h1         1 HHL       0.046033
     50 H18        135.8670     0.9320    74.8980 h1         1 HHL       0.046033
     51 H19        135.0370    -0.6340    74.7250 h1         1 HHL       0.046033
     52 H20        136.3500    -0.5020    76.6140 ha         1 HHL       0.146000
     53 H21        138.9160    -2.0680    78.5160 h1         1 HHL       0.046033
     54 H22        137.6330    -2.2660    77.3070 h1         1 HHL       0.046033
     55 H23        138.4490    -0.6950    77.4960 h1         1 HHL       0.046033
@<TRIPOS>BOND
     1     1     2 2   
     2     1    35 1   
     3     1    36 1   
     4     2     3 1   
     5     2     4 1   
     6     4     5 2   
     7     4     6 1   
     8     6     7 1   
     9     6    37 1   
    10     7     8 ar  
    11     7    13 ar  
    12     8     9 ar  
    13     8    38 1   
    14     9    10 ar  
    15     9    39 1   
    16    10    11 ar  
    17    10    40 1   
    18    11    12 1   
    19    11    13 ar  
    20    12    41 1   
    21    12    42 1   
    22    12    43 1   
    23    13    14 1   
    24    14    15 1   
    25    14    44 1   
    26    15    16 ar  
    27    15    18 ar  
    28    16    17 ar  
    29    17    20 ar  
    30    17    45 1   
    31    18    19 ar  
    32    19    20 ar  
    33    19    46 1   
    34    20    21 1   
    35    21    22 1   
    36    22    23 1   
    37    22    47 1   
    38    22    48 1   
    39    23    24 ar  
    40    23    26 ar  
    41    24    25 1   
    42    24    32 ar  
    43    26    27 1   
    44    26    28 ar  
    45    28    29 1   
    46    28    31 ar  
    47    29    30 1   
    48    30    49 1   
    49    30    50 1   
    50    30    51 1   
    51    31    32 ar  
    52    31    52 1   
    53    32    33 1   
    54    33    34 1   
    55    34    53 1   
    56    34    54 1   
    57    34    55 1   
@<TRIPOS>SUBSTRUCTURE
     1 HHL         1 TEMP              0 ****  ****    0 ROOT
