@<TRIPOS>MOLECULE
HHM
   39    41     1     0     0
SMALL
No Charge or Current Charge


@<TRIPOS>ATOM
      1 C21          5.0050     0.9340     0.4420 ca         1 HHM       0.127000
      2 C11          2.9540    -0.2980     0.9210 ca         1 HHM      -0.088300
      3 C22          3.7400     0.8650     1.0500 ca         1 HHM      -0.097000
      4 C01         -2.1530     1.5660    -2.3420 ca         1 HHM      -0.116000
      5 C02         -3.5330     1.5780    -2.0890 ca         1 HHM      -0.066000
      6 C03         -4.0300     1.1080    -0.8600 ca         1 HHM      -0.124300
      7 C04         -3.1270     0.6350     0.1160 ca         1 HHM      -0.046000
      8 C05         -1.7340     0.6160    -0.1250 ca         1 HHM      -0.153600
      9 C06         -1.2560     1.0890    -1.3720 ca         1 HHM      -0.079000
     10 C07         -0.8030     0.0960     0.9520 c          1 HHM       0.615700
     11 N08          0.5420     0.0950     0.6610 ns         1 HHM      -0.505900
     12 O09         -1.2120    -0.3070     2.0320 o          1 HHM      -0.592100
     13 C10          1.5830    -0.3740     1.5730 c3         1 HHM       0.142300
     14 N13         -6.0430    -0.0880     0.0600 na         1 HHM      -0.171500
     15 C14         -6.3270    -0.2470     1.4000 cc         1 HHM      -0.227000
     16 C15         -6.7680    -1.5390     1.5310 cd         1 HHM       0.226900
     17 N16         -6.7630    -2.1800     0.3090 nd         1 HHM      -0.670000
     18 C17         -6.3210    -1.2860    -0.5650 cc         1 HHM       0.384400
     19 C18          3.4470    -1.3850     0.1730 ca         1 HHM      -0.097000
     20 C19          4.7130    -1.3110    -0.4340 ca         1 HHM       0.127000
     21 C20          5.4940    -0.1530    -0.3000 ca         1 HHM      -0.096000
     22 Cl2          5.9770     2.3900     0.6070 cl         1 HHM      -0.190000
     23 Cl1          5.3190    -2.6740    -1.3660 cl         1 HHM      -0.190000
     24 H1           3.3710     1.7150     1.6190 ha         1 HHM       0.135000
     25 H2          -1.7760     1.9290    -3.2950 ha         1 HHM       0.123000
     26 H3          -4.2140     1.9520    -2.8510 ha         1 HHM       0.126000
     27 H4          -3.5120     0.2810     1.0700 ha         1 HHM       0.135000
     28 H5          -0.1950     1.0960    -1.6070 ha         1 HHM       0.116000
     29 H6           0.8200     0.4410    -0.2480 hn         1 HHM       0.319500
     30 H7           1.3660    -1.4110     1.8630 h1         1 HHM       0.071200
     31 H8           1.5670     0.2410     2.4830 h1         1 HHM       0.071200
     32 H9          -5.7710     1.9910     0.0430 h1         1 HHM       0.069700
     33 H10         -6.0770     1.2620    -1.5380 h1         1 HHM       0.069700
     34 H11         -6.2020     0.5360     2.1370 h4         1 HHM       0.158000
     35 H12         -7.0880    -2.0420     2.4360 h4         1 HHM       0.038100
     36 H13         -6.1810    -1.4340    -1.6300 h5         1 HHM       0.052100
     37 H14          2.8500    -2.2880     0.0590 ha         1 HHM       0.135000
     38 H15          6.4720    -0.0970    -0.7690 ha         1 HHM       0.146000
     39 C12         -5.5340     1.1280    -0.5930 c3         1 HHM       0.120900
@<TRIPOS>BOND
     1     1     3 ar  
     2     1    21 ar  
     3     1    22 1   
     4     2     3 ar  
     5     2    13 1   
     6     2    19 ar  
     7     3    24 1   
     8     4     5 ar  
     9     4     9 ar  
    10     4    25 1   
    11     5     6 ar  
    12     5    26 1   
    13     6     7 ar  
    14     6    39 1   
    15     7     8 ar  
    16     7    27 1   
    17     8     9 ar  
    18     8    10 1   
    19     9    28 1   
    20    10    11 1   
    21    10    12 2   
    22    11    13 1   
    23    11    29 1   
    24    13    30 1   
    25    13    31 1   
    26    14    15 1   
    27    14    18 1   
    28    14    39 1   
    29    15    16 2   
    30    15    34 1   
    31    16    17 1   
    32    16    35 1   
    33    17    18 2   
    34    18    36 1   
    35    19    20 ar  
    36    19    37 1   
    37    20    21 ar  
    38    20    23 1   
    39    21    38 1   
    40    32    39 1   
    41    33    39 1   
@<TRIPOS>SUBSTRUCTURE
     1 HHM         1 TEMP              0 ****  ****    0 ROOT
