@<TRIPOS>MOLECULE
HHM
   39    41     1     0     0
SMALL
abcg2


@<TRIPOS>ATOM
      1 C21          4.2860     0.9950    -0.7140 ca         1 HHM       0.127000
      2 C11          3.1010    -0.2770     0.9340 ca         1 HHM      -0.088300
      3 C22          3.0990     0.6800    -0.0730 ca         1 HHM      -0.097000
      4 C01         -2.3970     0.1060    -2.0280 ca         1 HHM      -0.116000
      5 C02         -3.6410     0.4930    -1.5590 ca         1 HHM      -0.066000
      6 C03         -3.8080     0.8500    -0.2230 ca         1 HHM      -0.124300
      7 C04         -2.7150     0.8140     0.6280 ca         1 HHM      -0.046000
      8 C05         -1.4620     0.4100     0.1680 ca         1 HHM      -0.153600
      9 C06         -1.3070     0.0600    -1.1690 ca         1 HHM      -0.079000
     10 C07         -0.3230     0.4170     1.1360 c          1 HHM       0.615700
     11 N08          0.6450    -0.4890     0.8990 ns         1 HHM      -0.505900
     12 O09         -0.2970     1.2010     2.0740 o          1 HHM      -0.592100
     13 C10          1.8390    -0.6210     1.6900 c3         1 HHM       0.142300
     14 N13         -6.2200     0.4060    -0.0880 na         1 HHM      -0.171500
     15 C14         -6.3700    -0.8930     0.3100 cc         1 HHM      -0.227000
     16 C15         -7.4940    -1.3390    -0.3230 cd         1 HHM       0.226900
     17 N16         -8.0280    -0.3470    -1.0970 nd         1 HHM      -0.670000
     18 C17         -7.2370     0.6810    -0.9330 cc         1 HHM       0.384400
     19 C18          4.2910    -0.9060     1.2840 ca         1 HHM      -0.097000
     20 C19          5.4610    -0.5670     0.6270 ca         1 HHM       0.127000
     21 C20          5.4840     0.3840    -0.3820 ca         1 HHM      -0.096000
     22 CL2          4.2780     2.1860    -1.9690 cl         1 HHM      -0.190000
     23 CL1          6.9370    -1.3580     1.0630 cl         1 HHM      -0.190000
     24 H1           2.1820     1.1750    -0.3640 ha         1 HHM       0.135000
     25 H2          -2.2700    -0.1550    -3.0700 ha         1 HHM       0.123000
     26 H3          -4.4820     0.5200    -2.2400 ha         1 HHM       0.126000
     27 H4          -2.8380     1.0910     1.6680 ha         1 HHM       0.135000
     28 H5          -0.3400    -0.2260    -1.5640 ha         1 HHM       0.116000
     29 H6           0.5040    -1.1760     0.1760 hn         1 HHM       0.319500
     30 H7           1.9120    -1.6410     2.0710 h1         1 HHM       0.071200
     31 H8           1.7530     0.0320     2.5590 h1         1 HHM       0.071200
     32 H9          -5.1270     1.3970     1.3780 h1         1 HHM       0.069700
     33 H10         -5.3950     2.2880    -0.1080 h1         1 HHM       0.069700
     34 H11         -5.6850    -1.3710     0.9900 h4         1 HHM       0.158000
     35 H12         -7.9420    -2.3190    -0.2600 h4         1 HHM       0.038100
     36 H13         -7.3480     1.6520    -1.3940 h5         1 HHM       0.052100
     37 H14          4.3020    -1.6590     2.0610 ha         1 HHM       0.135000
     38 H15          6.4020     0.6350    -0.8940 ha         1 HHM       0.146000
     39 C12         -5.1500     1.3030     0.2920 c3         1 HHM       0.120900
@<TRIPOS>BOND
     1     1     3 ar  
     2     1    21 ar  
     3     1    22 1   
     4     2     3 ar  
     5     2    13 1   
     6     2    19 ar  
     7     3    24 1   
     8     4     5 ar  
     9     4     9 ar  
    10     4    25 1   
    11     5     6 ar  
    12     5    26 1   
    13     6     7 ar  
    14     6    39 1   
    15     7     8 ar  
    16     7    27 1   
    17     8     9 ar  
    18     8    10 1   
    19     9    28 1   
    20    10    11 1   
    21    10    12 2   
    22    11    13 1   
    23    11    29 1   
    24    13    30 1   
    25    13    31 1   
    26    14    15 1   
    27    14    18 1   
    28    14    39 1   
    29    15    16 2   
    30    15    34 1   
    31    16    17 1   
    32    16    35 1   
    33    17    18 2   
    34    18    36 1   
    35    19    20 ar  
    36    19    37 1   
    37    20    21 ar  
    38    20    23 1   
    39    21    38 1   
    40    32    39 1   
    41    33    39 1   
@<TRIPOS>SUBSTRUCTURE
     1 HHM         1 TEMP              0 ****  ****    0 ROOT
