@<TRIPOS>MOLECULE
HHN
   10    10     1     0     0
SMALL
No Charge or Current Charge


@<TRIPOS>ATOM
      1 C4          -0.9690     1.2010    -0.0250 ca         1 HHN       0.137900
      2 N1          -2.2920    -1.2250    -0.0390 nb         1 HHN      -0.172000
      3 N2          -2.3190     1.1900    -0.0230 nb         1 HHN      -0.172000
      4 C3          -2.9110    -0.0240    -0.0300 ca         1 HHN       0.131900
      5 C1          -0.2290     0.0060    -0.0340 ca         1 HHN      -0.145900
      6 C2          -0.9420    -1.2060    -0.0410 ca         1 HHN       0.137900
      7 H1          -0.4820     2.1750    -0.0200 h4         1 HHN       0.040100
      8 H2          -4.0000    -0.0360    -0.0290 h5         1 HHN       0.056100
      9 H3          -0.4340    -2.1690    -0.0470 h4         1 HHN       0.040100
     10 Br1          1.6840     0.0270    -0.0370 br         1 HHN      -0.054100
@<TRIPOS>BOND
     1     1     3 ar  
     2     1     5 ar  
     3     1     7 1   
     4     2     4 ar  
     5     2     6 ar  
     6     3     4 ar  
     7     4     8 1   
     8     5     6 ar  
     9     5    10 1   
    10     6     9 1   
@<TRIPOS>SUBSTRUCTURE
     1 HHN         1 TEMP              0 ****  ****    0 ROOT
