@<TRIPOS>MOLECULE
HHN
   10    10     1     0     0
SMALL
abcg2


@<TRIPOS>ATOM
      1 C4          -0.9750     1.1830    -0.0260 ca         1 HHN       0.137900
      2 N1          -2.2730    -1.1980    -0.0390 nb         1 HHN      -0.172000
      3 N2          -2.2990     1.1630    -0.0240 nb         1 HHN      -0.172000
      4 C3          -2.8850    -0.0240    -0.0300 ca         1 HHN       0.131900
      5 C1          -0.2420     0.0060    -0.0340 ca         1 HHN      -0.145900
      6 C2          -0.9480    -1.1880    -0.0410 ca         1 HHN       0.137900
      7 H1          -0.4900     2.1530    -0.0210 h4         1 HHN       0.040100
      8 H2          -3.9690    -0.0360    -0.0270 h5         1 HHN       0.056100
      9 H3          -0.4420    -2.1470    -0.0480 h4         1 HHN       0.040100
     10 BR1          1.6290     0.0260    -0.0350 br         1 HHN      -0.054100
@<TRIPOS>BOND
     1     1     3 ar  
     2     1     5 ar  
     3     1     7 1   
     4     2     4 ar  
     5     2     6 ar  
     6     3     4 ar  
     7     4     8 1   
     8     5     6 ar  
     9     5    10 1   
    10     6     9 1   
@<TRIPOS>SUBSTRUCTURE
     1 HHN         1 TEMP              0 ****  ****    0 ROOT
