@<TRIPOS>MOLECULE
HHO
   33    32     1     0     0
SMALL
bcc


@<TRIPOS>ATOM
      1 N            0.6060     0.1530    -4.4290 n7         1 HHO      -0.830200
      2 C            0.1980    -0.4210    -5.6610 c3         1 HHO       0.379600
      3 O           -1.1000     0.0030    -6.0480 oh         1 HHO      -0.647800
      4 C1          -0.2130    -0.1600    -3.2700 c3         1 HHO       0.174800
      5 C2           0.5250     0.1590    -1.9780 c3         1 HHO      -0.080400
      6 C3          -0.3170    -0.0960    -0.7350 c3         1 HHO      -0.073400
      7 C4           0.4520     0.1360     0.5590 c3         1 HHO      -0.074400
      8 C5          -0.3860    -0.0910     1.8110 c3         1 HHO      -0.073400
      9 C6           0.4010     0.1200     3.0980 c3         1 HHO      -0.075400
     10 C7          -0.4300    -0.1050     4.3550 c3         1 HHO      -0.081400
     11 C8           0.3810     0.1170     5.6160 c3         1 HHO       0.140400
     12 O8          -0.4350    -0.1150     6.7460 oh         1 HHO      -0.599800
     13 HN           0.7300     1.1530    -4.5170 hn         1 HHO       0.370800
     14 H1           0.9350    -0.1420    -6.4240 h2         1 HHO       0.030700
     15 H2           0.2260    -1.5130    -5.5570 h2         1 HHO       0.030700
     16 HO          -1.3540    -0.4890    -6.8350 ho         1 HHO       0.411000
     17 H11         -0.4390    -1.2310    -3.2970 h1         1 HHO       0.035200
     18 H12         -1.1810     0.3590    -3.2740 h1         1 HHO       0.035200
     19 H21          0.8430     1.2080    -1.9890 hc         1 HHO       0.043700
     20 H22          1.4400    -0.4400    -1.9390 hc         1 HHO       0.043700
     21 H31         -0.6940    -1.1240    -0.7510 hc         1 HHO       0.037700
     22 H32         -1.2000     0.5510    -0.7530 hc         1 HHO       0.037700
     23 H41          0.8470     1.1580     0.5690 hc         1 HHO       0.037700
     24 H42          1.3250    -0.5260     0.5830 hc         1 HHO       0.037700
     25 H51         -0.7930    -1.1080     1.7980 hc         1 HHO       0.039700
     26 H52         -1.2490     0.5830     1.7980 hc         1 HHO       0.039700
     27 H61          0.8110     1.1360     3.1080 hc         1 HHO       0.036700
     28 H62          1.2640    -0.5550     3.1070 hc         1 HHO       0.036700
     29 H71         -0.8290    -1.1240     4.3540 hc         1 HHO       0.052700
     30 H72         -1.2910     0.5720     4.3530 hc         1 HHO       0.052700
     31 H81          0.7780     1.1410     5.6140 h1         1 HHO       0.014700
     32 H82          1.2500    -0.5550     5.6090 h1         1 HHO       0.014700
     33 HO8          0.1020     0.0160     7.5330 ho         1 HHO       0.403000
@<TRIPOS>BOND
     1     1     2 1   
     2     1     4 1   
     3     1    13 1   
     4     2     3 1   
     5     2    14 1   
     6     2    15 1   
     7     3    16 1   
     8     4     5 1   
     9     4    17 1   
    10     4    18 1   
    11     5     6 1   
    12     5    19 1   
    13     5    20 1   
    14     6     7 1   
    15     6    21 1   
    16     6    22 1   
    17     7     8 1   
    18     7    23 1   
    19     7    24 1   
    20     8     9 1   
    21     8    25 1   
    22     8    26 1   
    23     9    10 1   
    24     9    27 1   
    25     9    28 1   
    26    10    11 1   
    27    10    29 1   
    28    10    30 1   
    29    11    12 1   
    30    11    31 1   
    31    11    32 1   
    32    12    33 1   
@<TRIPOS>SUBSTRUCTURE
     1 HHO         1 TEMP              0 ****  ****    0 ROOT
