@<TRIPOS>MOLECULE
HHO
   33    32     1     0     0
SMALL
No Charge or Current Charge


@<TRIPOS>ATOM
      1 N            0.6620    -0.0700    -4.4910 n7         1 HHO      -0.885400
      2 C            0.0800    -0.3780    -5.7780 c3         1 HHO       0.402800
      3 O           -0.8840     0.6280    -5.9940 oh         1 HHO      -0.710000
      4 C1          -0.1780    -0.3690    -3.3140 c3         1 HHO       0.174800
      5 C2           0.5670     0.0120    -2.0180 c3         1 HHO      -0.080400
      6 C3          -0.2540    -0.2840    -0.7430 c3         1 HHO      -0.073400
      7 C4           0.4880     0.0960     0.5570 c3         1 HHO      -0.074400
      8 C5          -0.3350    -0.2000     1.8310 c3         1 HHO      -0.073400
      9 C6           0.4080     0.1790     3.1310 c3         1 HHO      -0.075400
     10 C7          -0.4140    -0.1160     4.4060 c3         1 HHO      -0.081400
     11 C8           0.3290     0.2630     5.7020 c3         1 HHO       0.163600
     12 O8          -0.4900    -0.0380     6.8350 oh         1 HHO      -0.662000
     13 HN           0.8310     0.9390    -4.5100 hn         1 HHO       0.426000
     14 H1           0.8360    -0.3250    -6.5720 h2         1 HHO       0.030700
     15 H2          -0.3920    -1.3700    -5.7870 h2         1 HHO       0.030700
     16 HO          -1.2880     0.4230    -6.8650 ho         1 HHO       0.450000
     17 H11         -0.4230    -1.4400    -3.2820 h1         1 HHO       0.035200
     18 H12         -1.1240     0.1890    -3.3560 h1         1 HHO       0.035200
     19 H21          0.8170     1.0800    -2.0450 hc         1 HHO       0.043700
     20 H22          1.5140    -0.5410    -1.9710 hc         1 HHO       0.043700
     21 H31         -0.5050    -1.3520    -0.7170 hc         1 HHO       0.037700
     22 H32         -1.2020     0.2670    -0.7910 hc         1 HHO       0.037700
     23 H41          0.7390     1.1640     0.5300 hc         1 HHO       0.037700
     24 H42          1.4360    -0.4550     0.6050 hc         1 HHO       0.037700
     25 H51         -0.5850    -1.2680     1.8570 hc         1 HHO       0.039700
     26 H52         -1.2830     0.3510     1.7830 hc         1 HHO       0.039700
     27 H61          0.6590     1.2470     3.1040 hc         1 HHO       0.036700
     28 H62          1.3560    -0.3710     3.1790 hc         1 HHO       0.036700
     29 H71         -0.6640    -1.1840     4.4350 hc         1 HHO       0.052700
     30 H72         -1.3610     0.4350     4.3600 hc         1 HHO       0.052700
     31 H81          0.5710     1.3350     5.6810 h1         1 HHO       0.014700
     32 H82          1.2730    -0.2960     5.7560 h1         1 HHO       0.014700
     33 HO8          0.0220     0.2200     7.6340 ho         1 HHO       0.442000
@<TRIPOS>BOND
     1     1     2 1   
     2     1     4 1   
     3     1    13 1   
     4     2     3 1   
     5     2    14 1   
     6     2    15 1   
     7     3    16 1   
     8     4     5 1   
     9     4    17 1   
    10     4    18 1   
    11     5     6 1   
    12     5    19 1   
    13     5    20 1   
    14     6     7 1   
    15     6    21 1   
    16     6    22 1   
    17     7     8 1   
    18     7    23 1   
    19     7    24 1   
    20     8     9 1   
    21     8    25 1   
    22     8    26 1   
    23     9    10 1   
    24     9    27 1   
    25     9    28 1   
    26    10    11 1   
    27    10    29 1   
    28    10    30 1   
    29    11    12 1   
    30    11    31 1   
    31    11    32 1   
    32    12    33 1   
@<TRIPOS>SUBSTRUCTURE
     1 HHO         1 TEMP              0 ****  ****    0 ROOT
