@<TRIPOS>MOLECULE
HHQ
   12    12     1     0     0
SMALL
No Charge or Current Charge


@<TRIPOS>ATOM
      1 C4          -0.9630     1.4400     0.1550 ce         1 HHQ      -0.313600
      2 C5          -2.3740     1.6820    -0.1620 ce         1 HHQ       0.534500
      3 N1          -3.1910     0.6830    -0.3780 nf         1 HHQ      -0.626100
      4 C3          -0.4790     0.1840     0.1510 c2         1 HHQ       0.066600
      5 C1          -2.8100    -0.5910     0.0880 c          1 HHQ       0.688500
      6 C2          -1.3660    -0.9790    -0.2390 c6         1 HHQ      -0.181200
      7 I1           1.5850    -0.3220     0.6000 i          1 HHQ      -0.132800
      8 H1          -0.3450     2.3030     0.3970 ha         1 HHQ       0.211000
      9 H2          -2.7230     2.7130    -0.2430 h4         1 HHQ       0.030800
     10 H3          -1.2830    -1.0680    -1.3290 hc         1 HHQ       0.104200
     11 H4          -1.0910    -1.9150     0.2630 hc         1 HHQ       0.104200
     12 O1          -3.4990    -1.1990     0.8910 o          1 HHQ      -0.486100
@<TRIPOS>BOND
     1     1     2 1   
     2     1     4 2   
     3     1     8 1   
     4     2     3 2   
     5     2     9 1   
     6     3     5 1   
     7     4     6 1   
     8     4     7 1   
     9     5     6 1   
    10     5    12 2   
    11     6    10 1   
    12     6    11 1   
@<TRIPOS>SUBSTRUCTURE
     1 HHQ         1 TEMP              0 ****  ****    0 ROOT
