@<TRIPOS>MOLECULE
HHQ
   12    12     1     0     0
SMALL
bcc


@<TRIPOS>ATOM
      1 C4          -0.8950     1.4740     0.0310 ce         1 HHQ      -0.263600
      2 C5          -2.3310     1.6780    -0.0060 ce         1 HHQ       0.534500
      3 N1          -3.2430     0.7740    -0.0170 nf         1 HHQ      -0.626100
      4 C3          -0.4440     0.2190     0.0370 c2         1 HHQ       0.066600
      5 C1          -2.8520    -0.5610     0.0150 c          1 HHQ       0.688500
      6 C2          -1.3790    -0.9310     0.0110 c6         1 HHQ      -0.181200
      7 I1           1.6010    -0.2070     0.0750 i          1 HHQ      -0.132800
      8 H1          -0.2550     2.3450     0.0480 ha         1 HHQ       0.161000
      9 H2          -2.6690     2.7110    -0.0300 h4         1 HHQ       0.030800
     10 H3          -1.1880    -1.5480    -0.8740 hc         1 HHQ       0.104200
     11 H4          -1.1920    -1.5930     0.8630 hc         1 HHQ       0.104200
     12 O1          -3.6910    -1.4310     0.0410 o          1 HHQ      -0.486100
@<TRIPOS>BOND
     1     1     2 1   
     2     1     4 2   
     3     1     8 1   
     4     2     3 2   
     5     2     9 1   
     6     3     5 1   
     7     4     6 1   
     8     4     7 1   
     9     5     6 1   
    10     5    12 2   
    11     6    10 1   
    12     6    11 1   
@<TRIPOS>SUBSTRUCTURE
     1 HHQ         1 TEMP              0 ****  ****    0 ROOT
