@<TRIPOS>MOLECULE
HHR
   21    22     1     0     0
SMALL
No Charge or Current Charge


@<TRIPOS>ATOM
      1 C7           1.3170     0.3530    -1.8470 ca         1 HHR       0.110900
      2 N8           1.8050     0.3720    -0.5890 nb         1 HHR      -0.121000
      3 C9           0.9500     0.2080     0.4490 ca         1 HHR       0.327000
      4 N1           1.4780     0.2290     1.7640 nc         1 HHR      -0.774700
      5 C2           0.5590     0.0600     2.6740 cd         1 HHR       0.751800
      6 N2           1.0270     0.0700     3.9010 nv         1 HHR      -1.056200
      7 C10         -0.4410     0.0210     0.1590 ca         1 HHR       0.150500
      8 C4          -1.3760    -0.1570     1.3260 c          1 HHR       0.492500
      9 N3          -0.7580    -0.1220     2.5300 ns         1 HHR      -0.460400
     10 O4          -2.5870    -0.3190     1.2370 o          1 HHR      -0.494000
     11 N5          -0.9430     0.0010    -1.1140 nb         1 HHR      -0.576000
     12 C6          -0.0500     0.1670    -2.1180 ca         1 HHR       0.251300
     13 C6A         -0.5770     0.1510    -3.5570 c3         1 HHR       0.121300
     14 O6A         -0.1320    -1.0130    -4.2810 oh         1 HHR      -0.665000
     15 H71          2.0380     0.4880    -2.6520 h4         1 HHR       0.050100
     16 HN21         2.0380     0.0310     3.9230 hn         1 HHR       0.513000
     17 HN22         0.5660    -0.5330     4.5710 hn         1 HHR       0.513000
     18 HN3         -1.3450    -0.2130     3.3430 hn         1 HHR       0.325500
     19 H6A1        -1.6750     0.1870    -3.5380 h1         1 HHR       0.043700
     20 H6A2        -0.2340     1.0640    -4.0610 h1         1 HHR       0.043700
     21 HO6         -0.5360    -0.9700    -5.1780 ho         1 HHR       0.455000
@<TRIPOS>BOND
     1     1     2 ar  
     2     1    12 ar  
     3     1    15 1   
     4     2     3 ar  
     5     3     4 1   
     6     3     7 ar  
     7     4     5 2   
     8     5     6 1   
     9     5     9 1   
    10     6    16 1   
    11     6    17 1   
    12     7     8 1   
    13     7    11 ar  
    14     8     9 1   
    15     8    10 2   
    16     9    18 1   
    17    11    12 ar  
    18    12    13 1   
    19    13    14 1   
    20    13    19 1   
    21    13    20 1   
    22    14    21 1   
@<TRIPOS>SUBSTRUCTURE
     1 HHR         1 TEMP              0 ****  ****    0 ROOT
