@<TRIPOS>MOLECULE
HHR
   21    22     1     0     0
SMALL
abcg2


@<TRIPOS>ATOM
      1 C7           1.2830    -0.0090    -1.8540 ca         1 HHR       0.110900
      2 N8           1.7890    -0.0110    -0.6420 nb         1 HHR      -0.121000
      3 C9           0.9350     0.0020     0.3920 ca         1 HHR       0.327000
      4 N1           1.4640    -0.0020     1.6350 nc         1 HHR      -0.774700
      5 C2           0.6310     0.0110     2.6390 cd         1 HHR       0.751800
      6 N2           1.0890     0.0220     3.8900 nv         1 HHR      -1.056200
      7 C10         -0.4470     0.0160     0.1370 ca         1 HHR       0.150500
      8 C4          -1.3760     0.0310     1.2680 c          1 HHR       0.492500
      9 N3          -0.7290     0.0280     2.4850 ns         1 HHR      -0.460400
     10 O4          -2.5860     0.0480     1.1890 o          1 HHR      -0.494000
     11 N5          -0.9460     0.0160    -1.0920 nb         1 HHR      -0.576000
     12 C6          -0.1020     0.0030    -2.1010 ca         1 HHR       0.251300
     13 C6A         -0.6940     0.0070    -3.4800 c3         1 HHR       0.121300
     14 O6A          0.3320    -0.0330    -4.4350 oh         1 HHR      -0.665000
     15 H71          1.9900    -0.0190    -2.6740 h4         1 HHR       0.050100
     16 HN21         2.0810    -0.0440     4.0420 hn         1 HHR       0.513000
     17 HN22         0.4850    -0.0600     4.6890 hn         1 HHR       0.513000
     18 HN3         -1.3180     0.0440     3.3080 hn         1 HHR       0.325500
     19 H6A1        -1.3710    -0.8530    -3.5640 h1         1 HHR       0.043700
     20 H6A2        -1.3190     0.9040    -3.5820 h1         1 HHR       0.043700
     21 HO6         -0.0700    -0.0240    -5.3080 ho         1 HHR       0.455000
@<TRIPOS>BOND
     1     1     2 ar  
     2     1    12 ar  
     3     1    15 1   
     4     2     3 ar  
     5     3     4 1   
     6     3     7 ar  
     7     4     5 2   
     8     5     6 1   
     9     5     9 1   
    10     6    16 1   
    11     6    17 1   
    12     7     8 1   
    13     7    11 ar  
    14     8     9 1   
    15     8    10 2   
    16     9    18 1   
    17    11    12 ar  
    18    12    13 1   
    19    13    14 1   
    20    13    19 1   
    21    13    20 1   
    22    14    21 1   
@<TRIPOS>SUBSTRUCTURE
     1 HHR         1 TEMP              0 ****  ****    0 ROOT
