@<TRIPOS>MOLECULE
HHS
   19    20     1     0     0
SMALL
No Charge or Current Charge


@<TRIPOS>ATOM
      1 N1          -2.1640    -1.3620     0.0480 nc         1 HHS      -0.768700
      2 C2          -2.9860    -0.3470     0.0670 cd         1 HHS       0.714800
      3 N2          -4.2550    -0.6930     0.0910 nv         1 HHS      -1.075200
      4 N3          -2.7200     0.9650     0.0570 ns         1 HHS      -0.463400
      5 C4          -1.4620     1.4670     0.0270 c          1 HHS       0.488500
      6 O4          -1.2600     2.6740     0.0260 o          1 HHS      -0.511000
      7 N5           0.9240     0.7860    -0.0340 nb         1 HHS      -0.548000
      8 C6A          1.8610    -0.2080    -0.0570 ca         1 HHS       0.225500
      9 O6A          3.7170     1.3050    -0.1070 o          1 HHS      -0.693000
     10 O6B          4.1750    -0.7910    -0.1160 o          1 HHS      -0.693000
     11 C6           3.3650     0.1300    -0.0970 c          1 HHS       0.618500
     12 C7           1.4460    -1.5560    -0.0450 ca         1 HHS       0.087900
     13 N8           0.1460    -1.9200    -0.0110 nb         1 HHS      -0.152000
     14 C9          -0.8060    -0.9600     0.0130 ca         1 HHS       0.274000
     15 C10         -0.3890     0.4090    -0.0000 ca         1 HHS       0.150500
     16 HN2         -4.3970    -1.6770    -0.0990 hn         1 HHS       0.496500
     17 HN2A        -4.9120    -0.0680    -0.3590 hn         1 HHS       0.496500
     18 HN3         -3.4730     1.6330     0.0960 hn         1 HHS       0.305500
     19 H7           2.1660    -2.3720    -0.0620 h4         1 HHS       0.048100
@<TRIPOS>BOND
     1     1     2 2   
     2     1    14 1   
     3     2     3 1   
     4     2     4 1   
     5     3    16 1   
     6     3    17 1   
     7     4     5 1   
     8     4    18 1   
     9     5     6 2   
    10     5    15 1   
    11     7     8 ar  
    12     7    15 ar  
    13     8    11 1   
    14     8    12 ar  
    15     9    11 1   
    16    10    11 1   
    17    12    13 ar  
    18    12    19 1   
    19    13    14 ar  
    20    14    15 ar  
@<TRIPOS>SUBSTRUCTURE
     1 HHS         1 TEMP              0 ****  ****    0 ROOT
