@<TRIPOS>MOLECULE
HHS
   19    20     1     0     0
SMALL
bcc


@<TRIPOS>ATOM
      1 N1          -2.0630    -1.3370    -0.0200 nc         1 HHS      -0.768700
      2 C2          -2.9650    -0.3940    -0.0040 cd         1 HHS       0.714800
      3 N2          -4.2600    -0.7080     0.0220 nv         1 HHS      -0.964800
      4 N3          -2.6560     0.9390     0.0070 ns         1 HHS      -0.530400
      5 C4          -1.3720     1.4410     0.0050 c          1 HHS       0.631000
      6 O4          -1.1570     2.6350     0.0170 o          1 HHS      -0.586500
      7 N5           0.9230     0.7500    -0.0250 nb         1 HHS      -0.548000
      8 C6A          1.8310    -0.2040    -0.0450 ca         1 HHS       0.225500
      9 O6A          3.5790     1.3760    -0.0910 o          1 HHS      -0.798300
     10 O6B          4.1000    -0.7970    -0.0430 o          1 HHS      -0.798300
     11 C6           3.3090     0.1660    -0.0610 c          1 HHS       0.829100
     12 C7           1.4190    -1.5510    -0.0530 ca         1 HHS       0.350900
     13 N8           0.1600    -1.9250    -0.0460 nb         1 HHS      -0.678000
     14 C9          -0.7670    -0.9540    -0.0260 ca         1 HHS       0.537000
     15 C10         -0.3540     0.3900    -0.0150 ca         1 HHS       0.150500
     16 HN2         -4.5220    -1.6750    -0.0640 hn         1 HHS       0.441300
     17 HN2A        -4.9840    -0.0170    -0.0740 hn         1 HHS       0.441300
     18 HN3         -3.4070     1.6180     0.0230 hn         1 HHS       0.305500
     19 H7           2.1640    -2.3380    -0.0690 h4         1 HHS       0.048100
@<TRIPOS>BOND
     1     1     2 2   
     2     1    14 1   
     3     2     3 1   
     4     2     4 1   
     5     3    16 1   
     6     3    17 1   
     7     4     5 1   
     8     4    18 1   
     9     5     6 2   
    10     5    15 1   
    11     7     8 ar  
    12     7    15 ar  
    13     8    11 1   
    14     8    12 ar  
    15     9    11 1   
    16    10    11 1   
    17    12    13 ar  
    18    12    19 1   
    19    13    14 ar  
    20    14    15 ar  
@<TRIPOS>SUBSTRUCTURE
     1 HHS         1 TEMP              0 ****  ****    0 ROOT
