@<TRIPOS>MOLECULE
HHT
   21    21     1     0     0
SMALL
No Charge or Current Charge


@<TRIPOS>ATOM
      1 C4          -1.3940     0.2660     0.1920 ca         1 HHT      -0.000900
      2 C5          -0.7910     1.5140     0.3950 ca         1 HHT      -0.125000
      3 C6           0.5930     1.5960     0.6090 ca         1 HHT      -0.102000
      4 C7           1.3900     0.4320     0.6220 ca         1 HHT       0.001700
      5 C8           2.8990     0.5750     0.8570 c3         1 HHT      -0.183100
      6 C9           3.6060     0.8160    -0.4850 c          1 HHT       0.731000
      7 C3          -0.6190    -0.9040     0.2000 ca         1 HHT      -0.191000
      8 C1           1.0260    -3.2870     0.2220 c3         1 HHT       0.152900
      9 C2           0.7770    -0.8310     0.4150 ca         1 HHT       0.150100
     10 Br1         -3.2790     0.1550    -0.0990 br         1 HHT      -0.164100
     11 O2           3.9660    -0.1550    -1.1340 o          1 HHT      -0.727000
     12 O3           3.6760     1.9640    -0.8970 o          1 HHT      -0.727000
     13 H1          -1.3950     2.4190     0.3870 ha         1 HHT       0.109000
     14 H2           1.0520     2.5710     0.7630 ha         1 HHT       0.109000
     15 H3           3.0370     1.4450     1.5100 hc         1 HHT       0.035700
     16 H4           3.2630    -0.3510     1.3160 hc         1 HHT       0.035700
     17 H5          -1.1180    -1.8550     0.0400 ha         1 HHT       0.114000
     18 H6           0.2810    -3.5300     0.9910 h1         1 HHT       0.029367
     19 H7           0.5530    -3.3620    -0.7650 h1         1 HHT       0.029367
     20 H8           1.8260    -4.0360     0.2740 h1         1 HHT       0.029367
     21 O1           1.5640    -1.9710     0.4310 os         1 HHT      -0.305100
@<TRIPOS>BOND
     1     1     2 ar  
     2     1     7 ar  
     3     1    10 1   
     4     2     3 ar  
     5     2    13 1   
     6     3     4 ar  
     7     3    14 1   
     8     4     5 1   
     9     4     9 ar  
    10     5     6 1   
    11     5    15 1   
    12     5    16 1   
    13     6    11 1   
    14     6    12 1   
    15     7     9 ar  
    16     7    17 1   
    17     8    18 1   
    18     8    19 1   
    19     8    20 1   
    20     8    21 1   
    21     9    21 1   
@<TRIPOS>SUBSTRUCTURE
     1 HHT         1 TEMP              0 ****  ****    0 ROOT
