@<TRIPOS>MOLECULE
HHT
   21    21     1     0     0
SMALL
bcc


@<TRIPOS>ATOM
      1 C4          -1.4020     0.3240     0.2660 ca         1 HHT      -0.000900
      2 C5          -0.8380     1.5470     0.5650 ca         1 HHT      -0.143000
      3 C6           0.5400     1.5990     0.7660 ca         1 HHT      -0.120000
      4 C7           1.3490     0.4800     0.6750 ca         1 HHT       0.001700
      5 C8           2.8260     0.5520     0.8850 c3         1 HHT      -0.183100
      6 C9           3.6600     0.3220    -0.4010 c          1 HHT       0.941600
      7 C3          -0.6350    -0.8320     0.1660 ca         1 HHT      -0.209000
      8 C1           1.0300    -3.0660    -0.0610 c3         1 HHT       0.129700
      9 C2           0.7390    -0.7470     0.3680 ca         1 HHT       0.150100
     10 BR1         -3.2700     0.2000    -0.0100 br         1 HHT      -0.164100
     11 O2           4.8580     0.0240    -0.2210 o          1 HHT      -0.832300
     12 O3           3.0860     0.4920    -1.4890 o          1 HHT      -0.832300
     13 H1          -1.4360     2.4440     0.6450 ha         1 HHT       0.127000
     14 H2           0.9930     2.5530     1.0060 ha         1 HHT       0.127000
     15 H3           3.0820     1.5450     1.2670 hc         1 HHT       0.035700
     16 H4           3.1470    -0.1540     1.6540 hc         1 HHT       0.035700
     17 H5          -1.1070    -1.7760    -0.0680 ha         1 HHT       0.132000
     18 H6           0.3020    -3.4280     0.6700 h1         1 HHT       0.029367
     19 H7           0.5580    -3.0420    -1.0460 h1         1 HHT       0.029367
     20 H8           1.8680    -3.7580    -0.0900 h1         1 HHT       0.029367
     21 O1           1.5620    -1.8070     0.2980 os         1 HHT      -0.281900
@<TRIPOS>BOND
     1     1     2 ar  
     2     1     7 ar  
     3     1    10 1   
     4     2     3 ar  
     5     2    13 1   
     6     3     4 ar  
     7     3    14 1   
     8     4     5 1   
     9     4     9 ar  
    10     5     6 1   
    11     5    15 1   
    12     5    16 1   
    13     6    11 1   
    14     6    12 1   
    15     7     9 ar  
    16     7    17 1   
    17     8    18 1   
    18     8    19 1   
    19     8    20 1   
    20     8    21 1   
    21     9    21 1   
@<TRIPOS>SUBSTRUCTURE
     1 HHT         1 TEMP              0 ****  ****    0 ROOT
