@<TRIPOS>MOLECULE
HHV
   27    28     1     0     0
SMALL
abcg2


@<TRIPOS>ATOM
      1 C01         -2.5810    -0.1810     0.0810 cc         1 HHV      -0.370600
      2 C02         -1.4210     0.6050     0.0880 cd         1 HHV       0.327000
      3 N03         -1.8410     1.8750     0.1940 na         1 HHV      -0.062200
      4 N04         -3.1860     1.9900     0.2650 nd         1 HHV      -0.526800
      5 C05         -3.6290     0.7620     0.1980 cc         1 HHV       0.302900
      6 N06         -0.1200     0.2390     0.0490 nu         1 HHV      -0.942200
      7 C07          0.9230     1.1860    -0.2890 c3         1 HHV       0.264100
      8 C08          2.2680     0.5430    -0.1190 ca         1 HHV      -0.166300
      9 C09          3.0720     0.2650    -1.2160 ca         1 HHV       0.351900
     10 N10          4.2670    -0.3100    -1.1310 nb         1 HHV      -0.664000
     11 C11          4.7120    -0.6380     0.0740 ca         1 HHV       0.347900
     12 C12          3.9910    -0.4090     1.2390 ca         1 HHV      -0.166000
     13 C13          2.7470     0.1890     1.1380 ca         1 HHV      -0.045000
     14 C14         -2.6010    -1.6290    -0.0530 c          1 HHV       0.668700
     15 O15         -1.5600    -2.2760    -0.2010 o          1 HHV      -0.658100
     16 N16         -3.8070    -2.2250    -0.0260 nt         1 HHV      -0.601000
     17 H05         -4.6930     0.5770     0.2300 h4         1 HHV       0.031100
     18 HN06         0.0190    -0.7180    -0.2420 hn         1 HHV       0.530000
     19 H07          0.8160     1.5680    -1.3110 h1         1 HHV       0.043200
     20 H07A         0.8590     2.0460     0.3840 h1         1 HHV       0.043200
     21 H09          2.7280     0.5220    -2.2130 h4         1 HHV       0.019100
     22 H11          5.6890    -1.1060     0.1210 h4         1 HHV       0.022100
     23 H12          4.4010    -0.6920     2.1980 ha         1 HHV       0.128000
     24 H13          2.1570     0.3840     2.0250 ha         1 HHV       0.128000
     25 HN16        -4.6570    -1.7220     0.1560 hn         1 HHV       0.311000
     26 HN1A        -3.8710    -3.2270    -0.0760 hn         1 HHV       0.311000
     27 HN03        -1.2770     2.7090     0.2280 hn         1 HHV       0.370000
@<TRIPOS>BOND
     1     1     2 2   
     2     1     5 1   
     3     1    14 1   
     4     2     3 1   
     5     2     6 1   
     6     3     4 1   
     7     3    27 1   
     8     4     5 2   
     9     5    17 1   
    10     6     7 1   
    11     6    18 1   
    12     7     8 1   
    13     7    19 1   
    14     7    20 1   
    15     8     9 ar  
    16     8    13 ar  
    17     9    10 ar  
    18     9    21 1   
    19    10    11 ar  
    20    11    12 ar  
    21    11    22 1   
    22    12    13 ar  
    23    12    23 1   
    24    13    24 1   
    25    14    15 2   
    26    14    16 1   
    27    16    25 1   
    28    16    26 1   
@<TRIPOS>SUBSTRUCTURE
     1 HHV         1 TEMP              0 ****  ****    0 ROOT
