@<TRIPOS>MOLECULE
HHV
   27    28     1     0     0
SMALL
No Charge or Current Charge


@<TRIPOS>ATOM
      1 C01         -2.5240    -0.1320     0.0330 cc         1 HHV      -0.370600
      2 C02         -1.4820     0.7200    -0.0610 cd         1 HHV       0.327000
      3 N03         -2.0430     1.9920    -0.1550 na         1 HHV      -0.062200
      4 N04         -3.4420     1.9560    -0.1220 nd         1 HHV      -0.526800
      5 C05         -3.6800     0.6610    -0.0080 cc         1 HHV       0.302900
      6 N06         -0.1540     0.4190    -0.0660 nu         1 HHV      -0.942200
      7 C07          0.9720     1.3520    -0.1130 c3         1 HHV       0.264100
      8 C08          2.2730     0.5790    -0.0520 ca         1 HHV      -0.166300
      9 C09          3.0740     0.4430    -1.2020 ca         1 HHV       0.351900
     10 N10          4.2500    -0.2290    -1.2110 nb         1 HHV      -0.664000
     11 C11          4.6640    -0.7930    -0.0530 ca         1 HHV       0.347900
     12 C12          3.9300    -0.7070     1.1420 ca         1 HHV      -0.166000
     13 C13          2.7120    -0.0080     1.1500 ca         1 HHV      -0.045000
     14 C14         -2.4530    -1.5860     0.1550 c          1 HHV       0.668700
     15 O15         -1.4120    -2.2210     0.1880 o          1 HHV      -0.658100
     16 N16         -3.6320    -2.2300     0.2330 nt         1 HHV      -0.601000
     17 H05         -4.7100     0.3310     0.0420 h4         1 HHV       0.031100
     18 HN06         0.0480    -0.5820     0.0290 hn         1 HHV       0.530000
     19 H07          0.9340     1.9460    -1.0370 h1         1 HHV       0.043200
     20 H07A         0.9240     2.0480     0.7370 h1         1 HHV       0.043200
     21 H09          2.7680     0.8860    -2.1490 h4         1 HHV       0.019100
     22 H11          5.6120    -1.3290    -0.0840 h4         1 HHV       0.022100
     23 H12          4.3070    -1.1760     2.0460 ha         1 HHV       0.128000
     24 H13          2.1240     0.0750     2.0620 ha         1 HHV       0.128000
     25 HN16        -4.4960    -1.7130     0.2070 hn         1 HHV       0.311000
     26 HN1A        -3.6350    -3.2340     0.3190 hn         1 HHV       0.311000
     27 HN03        -1.5240     2.8600    -0.2400 hn         1 HHV       0.370000
@<TRIPOS>BOND
     1     1     2 2   
     2     1     5 1   
     3     1    14 1   
     4     2     3 1   
     5     2     6 1   
     6     3     4 1   
     7     3    27 1   
     8     4     5 2   
     9     5    17 1   
    10     6     7 1   
    11     6    18 1   
    12     7     8 1   
    13     7    19 1   
    14     7    20 1   
    15     8     9 ar  
    16     8    13 ar  
    17     9    10 ar  
    18     9    21 1   
    19    10    11 ar  
    20    11    12 ar  
    21    11    22 1   
    22    12    13 ar  
    23    12    23 1   
    24    13    24 1   
    25    14    15 2   
    26    14    16 1   
    27    16    25 1   
    28    16    26 1   
@<TRIPOS>SUBSTRUCTURE
     1 HHV         1 TEMP              0 ****  ****    0 ROOT
