@<TRIPOS>MOLECULE
HHW
   32    33     1     0     0
SMALL
bcc


@<TRIPOS>ATOM
      1 C4           3.2670     0.4700    -0.0550 ca         1 HHW       0.000200
      2 C14         -4.7630    -1.1180    -0.2450 ca         1 HHW      -0.095000
      3 C5           3.3630     1.7980    -0.4850 ca         1 HHW      -0.116000
      4 C6           2.2320     2.5080    -0.8480 ca         1 HHW      -0.139000
      5 C11         -3.7120     1.2510     0.7120 ca         1 HHW      -0.166500
      6 C7           0.9760     1.9180    -0.7800 ca         1 HHW      -0.144000
      7 C8           0.8590     0.5980    -0.3540 ca         1 HHW      -0.164600
      8 C9          -0.4530    -0.1140    -0.2940 c          1 HHW       0.691700
      9 C10         -2.8630     0.3240     0.1030 ca         1 HHW       0.091600
     10 C12         -5.0660     1.0030     0.8430 ca         1 HHW      -0.095000
     11 C13         -5.5880    -0.1880     0.3640 ca         1 HHW      -0.009600
     12 N1          -1.5170     0.6790    -0.0040 ns         1 HHW      -0.474100
     13 C3           4.4270    -0.3290     0.3470 ce         1 HHW      -0.198200
     14 O1           7.9780    -0.3440     0.7120 o          1 HHW      -0.823800
     15 C1           6.8380    -0.8460     0.7860 c          1 HHW       0.905800
     16 O2           6.5500    -1.9940     1.1780 o          1 HHW      -0.823800
     17 C2           5.7050     0.0550     0.3470 cf         1 HHW      -0.154200
     18 O3          -0.5310    -1.3150    -0.4820 o          1 HHW      -0.578100
     19 CL1         -7.2830    -0.5120     0.5250 cl         1 HHW      -0.129400
     20 C15         -3.4050    -0.8690    -0.3780 ca         1 HHW      -0.166500
     21 C16          2.0040    -0.1150    -0.0100 ca         1 HHW      -0.087000
     22 H1          -5.1690    -2.0460    -0.6250 ha         1 HHW       0.142000
     23 H2           4.3280     2.2850    -0.5450 ha         1 HHW       0.140000
     24 H3           2.3260     3.5290    -1.1910 ha         1 HHW       0.120000
     25 H4          -3.3120     2.1830     1.0910 ha         1 HHW       0.151000
     26 H5           0.1090     2.4880    -1.0900 ha         1 HHW       0.113000
     27 H6          -5.7030     1.7360     1.3190 ha         1 HHW       0.142000
     28 H7          -1.3090     1.6250     0.2780 hn         1 HHW       0.323500
     29 H8           4.2030    -1.3390     0.6780 ha         1 HHW       0.147000
     30 H10          5.9830     1.0530     0.0200 ha         1 HHW       0.092000
     31 H11         -2.7900    -1.6100    -0.8610 ha         1 HHW       0.151000
     32 H12          1.9110    -1.1470     0.3080 ha         1 HHW       0.153000
@<TRIPOS>BOND
     1     1     3 ar  
     2     1    13 1   
     3     1    21 ar  
     4     2    11 ar  
     5     2    20 ar  
     6     2    22 1   
     7     3     4 ar  
     8     3    23 1   
     9     4     6 ar  
    10     4    24 1   
    11     5     9 ar  
    12     5    10 ar  
    13     5    25 1   
    14     6     7 ar  
    15     6    26 1   
    16     7     8 1   
    17     7    21 ar  
    18     8    12 1   
    19     8    18 2   
    20     9    12 1   
    21     9    20 ar  
    22    10    11 ar  
    23    10    27 1   
    24    11    19 1   
    25    12    28 1   
    26    13    17 2   
    27    13    29 1   
    28    14    15 1   
    29    15    16 1   
    30    15    17 1   
    31    17    30 1   
    32    20    31 1   
    33    21    32 1   
@<TRIPOS>SUBSTRUCTURE
     1 HHW         1 TEMP              0 ****  ****    0 ROOT
