@<TRIPOS>MOLECULE
HHW
   32    33     1     0     0
SMALL
No Charge or Current Charge


@<TRIPOS>ATOM
      1 C4           3.3450     0.4510     0.0400 ca         1 HHW       0.000200
      2 C14         -4.8860    -1.2190     0.0880 ca         1 HHW      -0.077000
      3 C5           3.3910     1.8530    -0.0870 ca         1 HHW      -0.098000
      4 C6           2.2030     2.5960    -0.1540 ca         1 HHW      -0.121000
      5 C11         -3.8680     1.3940     0.0290 ca         1 HHW      -0.148500
      6 C7           0.9570     1.9530    -0.0950 ca         1 HHW      -0.126000
      7 C8           0.8820     0.5440     0.0320 ca         1 HHW      -0.164600
      8 C9          -0.4460    -0.1950     0.1000 c          1 HHW       0.624700
      9 C10         -2.9730     0.3060     0.0470 ca         1 HHW      -0.001000
     10 C12         -5.2580     1.1810     0.0430 ca         1 HHW      -0.077000
     11 C13         -5.7660    -0.1260     0.0730 ca         1 HHW       0.082000
     12 N1          -1.5820     0.6040     0.0300 ns         1 HHW      -0.148000
     13 C3           4.5900    -0.3690     0.1140 ce         1 HHW      -0.248200
     14 O1           8.1930    -0.3540     0.1080 o          1 HHW      -0.718500
     15 C1           7.0880    -0.8710     0.1570 c          1 HHW       0.695200
     16 O2           6.9110    -2.0750     0.2670 o          1 HHW      -0.718500
     17 C2           5.9000     0.0330     0.0750 cf         1 HHW      -0.204200
     18 O3          -0.4860    -1.4160     0.2120 o          1 HHW      -0.578100
     19 Cl1         -7.5040    -0.3950     0.0890 cl         1 HHW      -0.221000
     20 C15         -3.4950    -1.0080     0.0750 ca         1 HHW      -0.148500
     21 C16          2.0910    -0.1900     0.0980 ca         1 HHW      -0.069000
     22 H1          -5.2820    -2.2320     0.1090 ha         1 HHW       0.124000
     23 H2           4.3410     2.3760    -0.1350 ha         1 HHW       0.122000
     24 H3           2.2490     3.6790    -0.2520 ha         1 HHW       0.102000
     25 H4          -3.4870     2.4130     0.0060 ha         1 HHW       0.133000
     26 H5           0.0610     2.5670    -0.1510 ha         1 HHW       0.095000
     27 H6          -5.9400     2.0280     0.0300 ha         1 HHW       0.124000
     28 H7          -1.3820     1.5910    -0.0500 hn         1 HHW       0.157000
     29 H8           4.4030    -1.4410     0.2120 ha         1 HHW       0.197000
     30 H10          6.1360     1.0890    -0.0220 ha         1 HHW       0.142000
     31 H11         -2.8470    -1.8770     0.0820 ha         1 HHW       0.133000
     32 H12          2.0580    -1.2730     0.1960 ha         1 HHW       0.135000
@<TRIPOS>BOND
     1     1     3 ar  
     2     1    13 1   
     3     1    21 ar  
     4     2    11 ar  
     5     2    20 ar  
     6     2    22 1   
     7     3     4 ar  
     8     3    23 1   
     9     4     6 ar  
    10     4    24 1   
    11     5     9 ar  
    12     5    10 ar  
    13     5    25 1   
    14     6     7 ar  
    15     6    26 1   
    16     7     8 1   
    17     7    21 ar  
    18     8    12 1   
    19     8    18 2   
    20     9    12 1   
    21     9    20 ar  
    22    10    11 ar  
    23    10    27 1   
    24    11    19 1   
    25    12    28 1   
    26    13    17 2   
    27    13    29 1   
    28    14    15 1   
    29    15    16 1   
    30    15    17 1   
    31    17    30 1   
    32    20    31 1   
    33    21    32 1   
@<TRIPOS>SUBSTRUCTURE
     1 HHW         1 TEMP              0 ****  ****    0 ROOT
