@<TRIPOS>MOLECULE
HHY
   25    26     1     0     0
SMALL
No Charge or Current Charge


@<TRIPOS>ATOM
      1 O1          -5.3730    -0.0090    -0.3870 o          1 HHY      -0.733000
      2 C1          -2.3620     0.4460     0.5760 c3         1 HHY      -0.093700
      3 O2          -4.6140    -1.8180     0.5040 o          1 HHY      -0.733000
      4 C2          -0.9590     0.8750     0.2460 cc         1 HHY       0.459300
      5 C3           1.1250     0.7320    -0.0100 cc         1 HHY       0.443500
      6 N1           0.7970     1.9710    -0.3470 nd         1 HHY      -0.373000
      7 C4           2.4650     0.1280    -0.0160 ca         1 HHY      -0.116500
      8 C5           3.5910     0.8860    -0.4110 ca         1 HHY      -0.074000
      9 C6           4.8740     0.3110    -0.4180 ca         1 HHY      -0.123500
     10 C7           5.0490    -1.0270    -0.0310 ca         1 HHY      -0.105000
     11 C8           3.9390    -1.7900     0.3640 ca         1 HHY      -0.123500
     12 C9           2.6550    -1.2190     0.3720 ca         1 HHY      -0.074000
     13 C10         -4.4650    -0.7820    -0.1260 c          1 HHY       0.722000
     14 C           -3.0390    -0.3900    -0.5440 c3         1 HHY      -0.212400
     15 O            0.0580    -0.0130     0.3770 os         1 HHY      -0.281000
     16 N           -0.5620     2.0640    -0.1810 nd         1 HHY      -0.396000
     17 H2          -2.3440    -0.1380     1.5050 hc         1 HHY       0.078200
     18 H3          -2.9700     1.3350     0.7830 hc         1 HHY       0.078200
     19 H4           3.4750     1.9250    -0.7150 ha         1 HHY       0.135000
     20 H5           5.7320     0.9040    -0.7240 ha         1 HHY       0.110500
     21 H6           6.0420    -1.4710    -0.0360 ha         1 HHY       0.105000
     22 H7           4.0730    -2.8270     0.6640 ha         1 HHY       0.110500
     23 H8           1.8080    -1.8290     0.6810 ha         1 HHY       0.135000
     24 H9          -3.0640     0.2580    -1.4290 hc         1 HHY       0.030200
     25 H10         -2.4180    -1.2850    -0.6700 hc         1 HHY       0.030200
@<TRIPOS>BOND
     1     1    13 1   
     2     2     4 1   
     3     2    14 1   
     4     2    17 1   
     5     2    18 1   
     6     3    13 1   
     7     4    15 1   
     8     4    16 2   
     9     5     6 2   
    10     5     7 1   
    11     5    15 1   
    12     6    16 1   
    13     7     8 ar  
    14     7    12 ar  
    15     8     9 ar  
    16     8    19 1   
    17     9    10 ar  
    18     9    20 1   
    19    10    11 ar  
    20    10    21 1   
    21    11    12 ar  
    22    11    22 1   
    23    12    23 1   
    24    13    14 1   
    25    14    24 1   
    26    14    25 1   
@<TRIPOS>SUBSTRUCTURE
     1 HHY         1 TEMP              0 ****  ****    0 ROOT
