@<TRIPOS>MOLECULE
HHY
   25    26     1     0     0
SMALL
bcc


@<TRIPOS>ATOM
      1 O1          -4.8490    -1.4810    -1.1700 o          1 HHY      -0.838300
      2 C1          -2.3400     0.4780     0.7090 c3         1 HHY      -0.093700
      3 O2          -4.8940    -0.5640     0.8620 o          1 HHY      -0.838300
      4 C2          -0.9570     0.9320     0.4520 cc         1 HHY       0.503700
      5 C3           1.1310     0.7640     0.1360 cc         1 HHY       0.487900
      6 N1           0.8370     2.0140     0.0300 nd         1 HHY      -0.373000
      7 C4           2.4300     0.1240     0.0110 ca         1 HHY      -0.116500
      8 C5           3.5470     0.9070    -0.2850 ca         1 HHY      -0.092000
      9 C6           4.7930     0.3170    -0.4070 ca         1 HHY      -0.141500
     10 C7           4.9380    -1.0540    -0.2340 ca         1 HHY      -0.123000
     11 C8           3.8290    -1.8350     0.0600 ca         1 HHY      -0.141500
     12 C9           2.5760    -1.2520     0.1820 ca         1 HHY      -0.092000
     13 C10         -4.3500    -0.8370    -0.2250 c          1 HHY       0.932600
     14 C           -2.9080    -0.3420    -0.4490 c3         1 HHY      -0.212400
     15 O            0.0410     0.0280     0.4020 os         1 HHY      -0.369800
     16 N           -0.5130     2.1200     0.2350 nd         1 HHY      -0.396000
     17 H2          -2.3580    -0.1060     1.6310 hc         1 HHY       0.078200
     18 H3          -2.9460     1.3670     0.8800 hc         1 HHY       0.078200
     19 H4           3.4380     1.9750    -0.4190 ha         1 HHY       0.153000
     20 H5           5.6550     0.9290    -0.6390 ha         1 HHY       0.128500
     21 H6           5.9140    -1.5120    -0.3280 ha         1 HHY       0.123000
     22 H7           3.9360    -2.9030     0.1950 ha         1 HHY       0.128500
     23 H8           1.7210    -1.8750     0.4110 ha         1 HHY       0.153000
     24 H9          -2.8840     0.2540    -1.3670 hc         1 HHY       0.030200
     25 H10         -2.2740    -1.2120    -0.6450 hc         1 HHY       0.030200
@<TRIPOS>BOND
     1     1    13 1   
     2     2     4 1   
     3     2    14 1   
     4     2    17 1   
     5     2    18 1   
     6     3    13 1   
     7     4    15 1   
     8     4    16 2   
     9     5     6 2   
    10     5     7 1   
    11     5    15 1   
    12     6    16 1   
    13     7     8 ar  
    14     7    12 ar  
    15     8     9 ar  
    16     8    19 1   
    17     9    10 ar  
    18     9    20 1   
    19    10    11 ar  
    20    10    21 1   
    21    11    12 ar  
    22    11    22 1   
    23    12    23 1   
    24    13    14 1   
    25    14    24 1   
    26    14    25 1   
@<TRIPOS>SUBSTRUCTURE
     1 HHY         1 TEMP              0 ****  ****    0 ROOT
