@<TRIPOS>MOLECULE
HI0
  103   109     1     0     0
SMALL
No Charge or Current Charge


@<TRIPOS>ATOM
      1 C1          -6.1710     0.9550    -1.1840 c6         1 HI0       0.169300
      2 N1          -7.2060     0.2350    -0.3860 n3         1 HI0      -0.741600
      3 O1           2.7400    -5.3930     0.1180 o          1 HI0      -0.530000
      4 S1           2.7290    -4.6070    -1.1160 sy         1 HI0       1.210600
      5 Cl1         -4.8600     3.1000     4.4850 cl         1 HI0      -0.206000
      6 C2          -7.1010    -1.2380    -0.6250 c6         1 HI0       0.169300
      7 N2          -4.5950    -1.0460    -1.0570 nh         1 HI0      -0.798400
      8 O2           3.1060    -5.1740    -2.4130 o          1 HI0      -0.530000
      9 S2           5.9700     2.5070    -2.7870 ss         1 HI0      -0.158000
     10 C3          -5.6710    -1.7960    -0.3300 c6         1 HI0       0.209800
     11 N3          -0.5840    -1.3370    -3.7080 nb         1 HI0      -0.200000
     12 O3           4.0230    -1.4220     2.9810 o          1 HI0      -0.421000
     13 C4          -4.7220     0.4400    -0.8990 c6         1 HI0       0.209800
     14 N4           1.2040    -2.8370    -3.1360 nb         1 HI0      -0.290000
     15 O4           4.0830     0.5910     2.1480 o          1 HI0      -0.421000
     16 C5          -8.5720     0.7730    -0.5900 c3         1 HI0       0.231100
     17 N5           1.1130    -4.2170    -1.2670 nu         1 HI0      -0.886000
     18 C6          -9.6200     0.1700     0.3520 ca         1 HI0      -0.074300
     19 N6           4.1190    -0.6410     2.0270 no         1 HI0       0.711200
     20 C7         -10.7110    -0.5210    -0.2170 ca         1 HI0      -0.111000
     21 N7           5.4850     0.6260    -0.2310 nu         1 HI0      -0.934200
     22 C8         -11.6820    -1.1260     0.5960 ca         1 HI0      -0.107000
     23 N8           8.8130    -0.9300     2.2350 n3         1 HI0      -0.711600
     24 C9         -11.5710    -1.0540     1.9920 ca         1 HI0      -0.107000
     25 C10        -10.4910    -0.3710     2.5710 ca         1 HI0      -0.104000
     26 C11         -9.5070     0.2590     1.7710 cp         1 HI0      -0.018000
     27 C12         -8.3740     0.9660     2.4390 cp         1 HI0      -0.004000
     28 C13         -8.1520     2.3520     2.2440 ca         1 HI0      -0.091500
     29 C14         -7.0760     3.0060     2.8690 ca         1 HI0      -0.106000
     30 C15         -6.2090     2.2840     3.7050 ca         1 HI0       0.115000
     31 C16         -6.4190     0.9130     3.9220 ca         1 HI0      -0.106000
     32 C17         -7.4960     0.2610     3.2960 ca         1 HI0      -0.091500
     33 C18         -3.3240    -1.6200    -1.2800 ca         1 HI0       0.369000
     34 C19         -2.5610    -1.2060    -2.3810 ca         1 HI0      -0.201000
     35 C20         -2.8030    -2.6060    -0.4230 ca         1 HI0      -0.179000
     36 C21         -1.5370    -3.1640    -0.6590 ca         1 HI0      -0.029000
     37 C22         -0.7720    -2.7390    -1.7680 ca         1 HI0      -0.208000
     38 C23         -1.2930    -1.7510    -2.6390 ca         1 HI0       0.091000
     39 C24          0.6230    -1.8990    -3.9040 ca         1 HI0       0.174900
     40 C25          0.5130    -3.2560    -2.0620 ca         1 HI0       0.428900
     41 C26          3.5570    -3.0490    -0.8360 ca         1 HI0      -0.372500
     42 C27          3.5280    -2.4630     0.4410 ca         1 HI0       0.106000
     43 C28          4.1590    -1.2210     0.6630 ca         1 HI0      -0.316200
     44 C29          4.8270    -0.5840    -0.3990 ca         1 HI0       0.473000
     45 C30          4.8460    -1.1770    -1.6670 ca         1 HI0      -0.249000
     46 C31          4.2150    -2.4060    -1.8950 ca         1 HI0       0.100000
     47 C32          6.8710     0.9140    -0.6410 c3         1 HI0       0.244500
     48 C33          7.8270     0.7290     0.5610 c3         1 HI0      -0.097400
     49 C34          7.9630    -0.7380     1.0320 c3         1 HI0       0.166800
     50 C35          8.6840    -2.2960     2.7900 c3         1 HI0       0.148600
     51 C36         10.2320    -0.5460     2.0400 c3         1 HI0       0.148600
     52 C37          6.9530     2.3450    -1.2240 c3         1 HI0       0.020600
     53 C38          6.2180     4.1960    -3.3500 ca         1 HI0      -0.097000
     54 C39          5.6330     4.5760    -4.5730 ca         1 HI0      -0.104000
     55 C40          5.7920     5.8830    -5.0640 ca         1 HI0      -0.099000
     56 C41          6.5380     6.8220    -4.3340 ca         1 HI0      -0.109000
     57 C42          7.1240     6.4510    -3.1120 ca         1 HI0      -0.099000
     58 C43          6.9660     5.1440    -2.6190 ca         1 HI0      -0.104000
     59 H1          -6.3760     0.8390    -2.2590 h1         1 HI0       0.041950
     60 H1A         -6.2040     2.0330    -0.9660 h1         1 HI0       0.041950
     61 H2          -7.8180    -1.7840     0.0060 h1         1 HI0       0.041950
     62 H2A         -7.3560    -1.4680    -1.6700 h1         1 HI0       0.041950
     63 H3          -5.4940    -1.7400     0.7550 h1         1 HI0       0.052700
     64 H3A         -5.6520    -2.8590    -0.6110 h1         1 HI0       0.052700
     65 H4          -4.0310     0.9660    -1.5730 h1         1 HI0       0.052700
     66 H4A         -4.4480     0.7240     0.1280 h1         1 HI0       0.052700
     67 H5          -8.5680     1.8610    -0.4450 h1         1 HI0       0.039200
     68 H5A         -8.8810     0.6040    -1.6310 h1         1 HI0       0.039200
     69 HN5          0.6960    -4.4080    -0.3720 hn         1 HI0       0.523000
     70 H7         -10.8040    -0.5970    -1.2990 ha         1 HI0       0.111000
     71 HN7          5.1640     1.1240     0.6030 hn         1 HI0       0.536000
     72 H8         -12.5170    -1.6570     0.1430 ha         1 HI0       0.116000
     73 H9         -12.3200    -1.5260     2.6240 ha         1 HI0       0.116000
     74 H10        -10.4140    -0.3180     3.6550 ha         1 HI0       0.118000
     75 H13         -8.8240     2.9200     1.6050 ha         1 HI0       0.116500
     76 H14         -6.9160     4.0680     2.7080 ha         1 HI0       0.128000
     77 H16         -5.7470     0.3570     4.5710 ha         1 HI0       0.128000
     78 H17         -7.6480    -0.8030     3.4620 ha         1 HI0       0.116500
     79 H19         -2.9640    -0.4580    -3.0560 ha         1 HI0       0.136000
     80 H20         -3.3710    -2.9380     0.4400 ha         1 HI0       0.117000
     81 H21         -1.1710    -3.9240     0.0270 ha         1 HI0       0.109000
     82 H24          1.1860    -1.5590    -4.7720 h5         1 HI0       0.046100
     83 H27          3.0070    -2.9690     1.2550 ha         1 HI0       0.159000
     84 H30          5.3450    -0.6780    -2.4910 ha         1 HI0       0.126000
     85 H31          4.2360    -2.8440    -2.8930 ha         1 HI0       0.151000
     86 H32          7.1880     0.2240    -1.4370 h1         1 HI0       0.077700
     87 H33          8.8150     1.0980     0.2650 hc         1 HI0       0.061700
     88 H33A         7.4920     1.3520     1.3990 hc         1 HI0       0.061700
     89 H34          8.3510    -1.3410     0.2000 h1         1 HI0       0.033200
     90 H34A         6.9570    -1.1160     1.2540 h1         1 HI0       0.033200
     91 H35          9.0610    -3.0450     2.0800 h1         1 HI0       0.032867
     92 H35A         9.2530    -2.3920     3.7250 h1         1 HI0       0.032867
     93 H35B         7.6340    -2.5300     3.0110 h1         1 HI0       0.032867
     94 H36         10.3280     0.5190     1.7940 h1         1 HI0       0.032867
     95 H36A        10.8100    -0.7220     2.9580 h1         1 HI0       0.032867
     96 H36B        10.6890    -1.1320     1.2310 h1         1 HI0       0.032867
     97 H37          8.0000     2.5820    -1.4500 h1         1 HI0       0.077200
     98 H37A         6.5820     3.0660    -0.4850 h1         1 HI0       0.077200
     99 H39          5.0540     3.8540    -5.1440 ha         1 HI0       0.118500
    100 H40          5.3370     6.1670    -6.0110 ha         1 HI0       0.115000
    101 H41          6.6620     7.8340    -4.7130 ha         1 HI0       0.116000
    102 H42          7.7010     7.1790    -2.5450 ha         1 HI0       0.115000
    103 H43          7.4290     4.8890    -1.6710 ha         1 HI0       0.118500
@<TRIPOS>BOND
     1     1     2 1   
     2     1    13 1   
     3     1    59 1   
     4     1    60 1   
     5     2     6 1   
     6     2    16 1   
     7     3     4 2   
     8     4     8 2   
     9     4    17 1   
    10     4    41 1   
    11     5    30 1   
    12     6    10 1   
    13     6    61 1   
    14     6    62 1   
    15     7    10 1   
    16     7    13 1   
    17     7    33 1   
    18     9    52 1   
    19     9    53 1   
    20    10    63 1   
    21    10    64 1   
    22    11    38 ar  
    23    11    39 ar  
    24    12    19 1   
    25    13    65 1   
    26    13    66 1   
    27    14    39 ar  
    28    14    40 ar  
    29    15    19 1   
    30    16    18 1   
    31    16    67 1   
    32    16    68 1   
    33    17    40 1   
    34    17    69 1   
    35    18    20 ar  
    36    18    26 ar  
    37    19    43 1   
    38    20    22 ar  
    39    20    70 1   
    40    21    44 1   
    41    21    47 1   
    42    21    71 1   
    43    22    24 ar  
    44    22    72 1   
    45    23    49 1   
    46    23    50 1   
    47    23    51 1   
    48    24    25 ar  
    49    24    73 1   
    50    25    26 ar  
    51    25    74 1   
    52    26    27 1   
    53    27    28 ar  
    54    27    32 ar  
    55    28    29 ar  
    56    28    75 1   
    57    29    30 ar  
    58    29    76 1   
    59    30    31 ar  
    60    31    32 ar  
    61    31    77 1   
    62    32    78 1   
    63    33    34 ar  
    64    33    35 ar  
    65    34    38 ar  
    66    34    79 1   
    67    35    36 ar  
    68    35    80 1   
    69    36    37 ar  
    70    36    81 1   
    71    37    38 ar  
    72    37    40 ar  
    73    39    82 1   
    74    41    42 ar  
    75    41    46 ar  
    76    42    43 ar  
    77    42    83 1   
    78    43    44 ar  
    79    44    45 ar  
    80    45    46 ar  
    81    45    84 1   
    82    46    85 1   
    83    47    48 1   
    84    47    52 1   
    85    47    86 1   
    86    48    49 1   
    87    48    87 1   
    88    48    88 1   
    89    49    89 1   
    90    49    90 1   
    91    50    91 1   
    92    50    92 1   
    93    50    93 1   
    94    51    94 1   
    95    51    95 1   
    96    51    96 1   
    97    52    97 1   
    98    52    98 1   
    99    53    54 ar  
   100    53    58 ar  
   101    54    55 ar  
   102    54    99 1   
   103    55    56 ar  
   104    55   100 1   
   105    56    57 ar  
   106    56   101 1   
   107    57    58 ar  
   108    57   102 1   
   109    58   103 1   
@<TRIPOS>SUBSTRUCTURE
     1 HI0         1 TEMP              0 ****  ****    0 ROOT
