@<TRIPOS>MOLECULE
HI0
  103   109     1     0     0
SMALL
bcc


@<TRIPOS>ATOM
      1 C1          -6.5310    -0.0060    -2.1260 c6         1 HI0       0.169300
      2 N1          -7.3940    -0.2940    -1.0110 n3         1 HI0      -0.741600
      3 O1           2.6490    -5.5190     1.0390 o          1 HI0      -0.600800
      4 S1           2.6120    -4.7080    -0.1650 sy         1 HI0       1.352200
      5 CL1         -3.9830     4.2090     0.4960 cl         1 HI0      -0.114400
      6 C2          -7.1440    -1.6230    -0.5210 c6         1 HI0       0.169300
      7 N2          -4.7660    -1.3650    -1.0910 nh         1 HI0      -0.660000
      8 O2           2.9600    -5.2990    -1.4400 o          1 HI0      -0.600800
      9 S2           4.7600     2.5810    -0.5770 ss         1 HI0      -0.237000
     10 C3          -5.7060    -1.7600    -0.0520 c6         1 HI0       0.209800
     11 N3          -0.3120    -1.3610    -2.8720 nb         1 HI0      -0.726000
     12 O3           3.6540    -1.5580     3.7010 o          1 HI0      -0.231000
     13 C4          -5.0830    -0.0740    -1.6840 c6         1 HI0       0.209800
     14 N4           1.3700    -2.7800    -1.9880 nb         1 HI0      -0.816000
     15 O4           4.9920    -0.0100     3.1240 o          1 HI0      -0.231000
     16 C5          -8.7860     0.0120    -1.2300 c3         1 HI0       0.231100
     17 N5           1.0280    -4.1700    -0.2020 nu         1 HI0      -0.830800
     18 C6          -9.5240     0.1890     0.0750 ca         1 HI0      -0.074300
     19 N6           4.3390    -1.0070     2.8700 no         1 HI0       0.331200
     20 C7         -10.7000    -0.5190     0.2970 ca         1 HI0      -0.129000
     21 N7           5.9210     0.1290     0.6680 nu         1 HI0      -0.740600
     22 C8         -11.3980    -0.4110     1.4930 ca         1 HI0      -0.125000
     23 N8           9.9550    -1.3200     0.1330 n3         1 HI0      -0.711600
     24 C9         -10.9080     0.4080     2.4980 ca         1 HI0      -0.125000
     25 C10         -9.7320     1.1170     2.2910 ca         1 HI0      -0.122000
     26 C11         -9.0340     1.0260     1.0890 cp         1 HI0      -0.018000
     27 C12         -7.7890     1.8160     0.9310 cp         1 HI0      -0.004000
     28 C13         -7.6550     2.7660    -0.0790 ca         1 HI0      -0.109500
     29 C14         -6.4910     3.5050    -0.2190 ca         1 HI0      -0.124000
     30 C15         -5.4500     3.2990     0.6730 ca         1 HI0       0.023400
     31 C16         -5.5650     2.3810     1.7030 ca         1 HI0      -0.124000
     32 C17         -6.7360     1.6490     1.8260 ca         1 HI0      -0.109500
     33 C18         -3.4720    -1.8100    -1.0660 ca         1 HI0       0.230600
     34 C19         -2.5060    -1.3460    -1.9590 ca         1 HI0      -0.284300
     35 C20         -3.0530    -2.7960    -0.1200 ca         1 HI0      -0.197000
     36 C21         -1.7780    -3.2800    -0.1000 ca         1 HI0      -0.047000
     37 C22         -0.8110    -2.8220    -1.0130 ca         1 HI0      -0.338600
     38 C23         -1.1990    -1.8420    -1.9540 ca         1 HI0       0.484600
     39 C24          0.8890    -1.8540    -2.8350 ca         1 HI0       0.700900
     40 C25          0.5390    -3.2470    -1.0890 ca         1 HI0       0.757200
     41 C26          3.5820    -3.2680     0.0750 ca         1 HI0      -0.372500
     42 C27          3.6140    -2.6860     1.3170 ca         1 HI0       0.088000
     43 C28          4.3820    -1.5460     1.5390 ca         1 HI0      -0.316200
     44 C29          5.1690    -0.9630     0.4980 ca         1 HI0       0.334600
     45 C30          5.1080    -1.6210    -0.7580 ca         1 HI0      -0.267000
     46 C31          4.3360    -2.7260    -0.9710 ca         1 HI0       0.082000
     47 C32          6.7800     0.7840    -0.3040 c3         1 HI0       0.244500
     48 C33          8.2570     0.4830    -0.0390 c3         1 HI0      -0.097400
     49 C34          8.5770    -0.9980    -0.1820 c3         1 HI0       0.166800
     50 C35         10.1280    -2.7520     0.2590 c3         1 HI0       0.148600
     51 C36         10.8900    -0.7730    -0.8280 c3         1 HI0       0.148600
     52 C37          6.5220     2.2860    -0.2580 c3         1 HI0      -0.027300
     53 C38          4.7030     4.2990    -0.9680 ca         1 HI0       0.029900
     54 C39          3.5790     4.7510    -1.6610 ca         1 HI0      -0.122000
     55 C40          3.4430     6.0960    -1.9670 ca         1 HI0      -0.117000
     56 C41          4.4280     7.0050    -1.6010 ca         1 HI0      -0.127000
     57 C42          5.5470     6.5540    -0.9150 ca         1 HI0      -0.117000
     58 C43          5.6860     5.2110    -0.5910 ca         1 HI0      -0.122000
     59 H1          -6.6910    -0.6940    -2.9750 h1         1 HI0       0.041950
     60 H1A         -6.7280     1.0070    -2.4840 h1         1 HI0       0.041950
     61 H2          -7.7920    -1.8370     0.3320 h1         1 HI0       0.041950
     62 H2A         -7.3510    -2.3920    -1.2870 h1         1 HI0       0.041950
     63 H3          -5.5560    -1.1540     0.8510 h1         1 HI0       0.052700
     64 H3A         -5.5560    -2.8030     0.2150 h1         1 HI0       0.052700
     65 H4          -4.4580     0.1160    -2.5510 h1         1 HI0       0.052700
     66 H4A         -4.9020     0.7260    -0.9540 h1         1 HI0       0.052700
     67 H5          -8.8360     0.9360    -1.8120 h1         1 HI0       0.039200
     68 H5A         -9.3030    -0.7490    -1.8370 h1         1 HI0       0.039200
     69 HN5          0.4590    -4.5030     0.5640 hn         1 HI0       0.467800
     70 H7         -11.0710    -1.1780    -0.4780 ha         1 HI0       0.129000
     71 HN7          5.9480     0.5060     1.6040 hn         1 HI0       0.480800
     72 H8         -12.3110    -0.9730     1.6400 ha         1 HI0       0.134000
     73 H9         -11.4340     0.4960     3.4400 ha         1 HI0       0.134000
     74 H10         -9.3550     1.7650     3.0730 ha         1 HI0       0.136000
     75 H13         -8.4680     2.9390    -0.7730 ha         1 HI0       0.134500
     76 H14         -6.4020     4.2350    -1.0120 ha         1 HI0       0.146000
     77 H16         -4.7510     2.2280     2.3990 ha         1 HI0       0.146000
     78 H17         -6.8160     0.9170     2.6190 ha         1 HI0       0.134500
     79 H19         -2.7250    -0.5990    -2.7070 ha         1 HI0       0.154000
     80 H20         -3.7380    -3.1820     0.6190 ha         1 HI0       0.135000
     81 H21         -1.5380    -4.0230     0.6510 ha         1 HI0       0.127000
     82 H24          1.6000    -1.4820    -3.5650 h5         1 HI0       0.046100
     83 H27          3.0420    -3.1000     2.1350 ha         1 HI0       0.177000
     84 H30          5.6900    -1.2500    -1.5870 ha         1 HI0       0.144000
     85 H31          4.3220    -3.1770    -1.9520 ha         1 HI0       0.169000
     86 H32          6.5240     0.4400    -1.3060 h1         1 HI0       0.077700
     87 H33          8.8410     1.0740    -0.7480 hc         1 HI0       0.061700
     88 H33A         8.5270     0.8260     0.9640 hc         1 HI0       0.061700
     89 H34          8.3030    -1.3350    -1.1980 h1         1 HI0       0.033200
     90 H34A         7.9460    -1.5620     0.5100 h1         1 HI0       0.033200
     91 H35          9.9050    -3.3010    -0.6690 h1         1 HI0       0.032867
     92 H35A        11.1570    -2.9800     0.5400 h1         1 HI0       0.032867
     93 H35B         9.4730    -3.1420     1.0400 h1         1 HI0       0.032867
     94 H36         10.8610     0.3170    -0.8290 h1         1 HI0       0.032867
     95 H36A        11.9050    -1.0680    -0.5600 h1         1 HI0       0.032867
     96 H36B        10.7030    -1.1150    -1.8580 h1         1 HI0       0.032867
     97 H37          7.1180     2.7720    -1.0320 h1         1 HI0       0.077200
     98 H37A         6.8110     2.6990     0.7110 h1         1 HI0       0.077200
     99 H39          2.8110     4.0510    -1.9680 ha         1 HI0       0.136500
    100 H40          2.5650     6.4320    -2.5040 ha         1 HI0       0.133000
    101 H41          4.3240     8.0530    -1.8480 ha         1 HI0       0.134000
    102 H42          6.3210     7.2510    -0.6210 ha         1 HI0       0.133000
    103 H43          6.5610     4.8910    -0.0420 ha         1 HI0       0.136500
@<TRIPOS>BOND
     1     1     2 1   
     2     1    13 1   
     3     1    59 1   
     4     1    60 1   
     5     2     6 1   
     6     2    16 1   
     7     3     4 2   
     8     4     8 2   
     9     4    17 1   
    10     4    41 1   
    11     5    30 1   
    12     6    10 1   
    13     6    61 1   
    14     6    62 1   
    15     7    10 1   
    16     7    13 1   
    17     7    33 1   
    18     9    52 1   
    19     9    53 1   
    20    10    63 1   
    21    10    64 1   
    22    11    38 ar  
    23    11    39 ar  
    24    12    19 1   
    25    13    65 1   
    26    13    66 1   
    27    14    39 ar  
    28    14    40 ar  
    29    15    19 1   
    30    16    18 1   
    31    16    67 1   
    32    16    68 1   
    33    17    40 1   
    34    17    69 1   
    35    18    20 ar  
    36    18    26 ar  
    37    19    43 1   
    38    20    22 ar  
    39    20    70 1   
    40    21    44 1   
    41    21    47 1   
    42    21    71 1   
    43    22    24 ar  
    44    22    72 1   
    45    23    49 1   
    46    23    50 1   
    47    23    51 1   
    48    24    25 ar  
    49    24    73 1   
    50    25    26 ar  
    51    25    74 1   
    52    26    27 1   
    53    27    28 ar  
    54    27    32 ar  
    55    28    29 ar  
    56    28    75 1   
    57    29    30 ar  
    58    29    76 1   
    59    30    31 ar  
    60    31    32 ar  
    61    31    77 1   
    62    32    78 1   
    63    33    34 ar  
    64    33    35 ar  
    65    34    38 ar  
    66    34    79 1   
    67    35    36 ar  
    68    35    80 1   
    69    36    37 ar  
    70    36    81 1   
    71    37    38 ar  
    72    37    40 ar  
    73    39    82 1   
    74    41    42 ar  
    75    41    46 ar  
    76    42    43 ar  
    77    42    83 1   
    78    43    44 ar  
    79    44    45 ar  
    80    45    46 ar  
    81    45    84 1   
    82    46    85 1   
    83    47    48 1   
    84    47    52 1   
    85    47    86 1   
    86    48    49 1   
    87    48    87 1   
    88    48    88 1   
    89    49    89 1   
    90    49    90 1   
    91    50    91 1   
    92    50    92 1   
    93    50    93 1   
    94    51    94 1   
    95    51    95 1   
    96    51    96 1   
    97    52    97 1   
    98    52    98 1   
    99    53    54 ar  
   100    53    58 ar  
   101    54    55 ar  
   102    54    99 1   
   103    55    56 ar  
   104    55   100 1   
   105    56    57 ar  
   106    56   101 1   
   107    57    58 ar  
   108    57   102 1   
   109    58   103 1   
@<TRIPOS>SUBSTRUCTURE
     1 HI0         1 TEMP              0 ****  ****    0 ROOT
