@<TRIPOS>MOLECULE
HI1
   92    95     1     0     0
SMALL
No Charge or Current Charge


@<TRIPOS>ATOM
      1 C23         -5.5880    -0.1160    -0.9640 ca         1 HI1      -0.077300
      2 C14         -5.6600     1.5950    -4.5160 c3         1 HI1      -0.105400
      3 C24         -4.3390    -0.3440    -0.3510 ca         1 HI1      -0.092000
      4 C1          -5.6560     1.5560    -2.9520 c3         1 HI1       0.113000
      5 C25         -4.2520    -0.5230     1.0400 ca         1 HI1      -0.108500
      6 C26         -5.4140    -0.4800     1.8290 ca         1 HI1      -0.105000
      7 C27         -6.6630    -0.2600     1.2240 ca         1 HI1      -0.108500
      8 C28         -6.7500    -0.0800    -0.1670 ca         1 HI1      -0.092000
      9 C33         -3.1030     4.1980    -8.3440 ca         1 HI1      -0.082300
     10 C34         -2.2980     4.9380    -7.4530 ca         1 HI1      -0.095000
     11 C35         -0.9350     4.6260    -7.3000 ca         1 HI1      -0.095000
     12 C36         -0.3710     3.5750    -8.0410 ca         1 HI1      -0.015900
     13 C37         -1.1650     2.8330    -8.9300 ca         1 HI1      -0.095000
     14 C38         -2.5290     3.1430    -9.0810 ca         1 HI1      -0.095000
     15 C32         -4.5870     4.5300    -8.4880 c3         1 HI1       0.218100
     16 C7         -11.5150     7.8600    -3.2560 c3         1 HI1       0.164900
     17 C4          -5.3350     3.0380    -6.6260 c3         1 HI1       0.169800
     18 O3         -11.0550     6.2810    -5.4730 o          1 HI1      -0.557000
     19 N1          -8.9990     7.2810    -5.7110 ns         1 HI1      -0.472900
     20 C22         -5.6780     0.0710    -2.4780 c3         1 HI1      -0.055100
     21 O6          -6.8850     2.1860    -2.5140 oh         1 HI1      -0.617000
     22 O8         -10.3060     7.9130    -4.0350 os         1 HI1      -0.447100
     23 C10         -4.3770     2.2660    -2.3340 c          1 HI1       0.618100
     24 O11         -4.4160     2.9350    -1.3050 o          1 HI1      -0.556100
     25 N12         -3.2010     2.1180    -3.0580 ns         1 HI1      -0.502900
     26 C51         -1.9560     2.6790    -2.5110 c5         1 HI1       0.124000
     27 C52         -0.7060     2.2370    -3.2260 ca         1 HI1      -0.122300
     28 C57          0.1550     3.2910    -3.4540 ca         1 HI1      -0.086300
     29 C53         -0.3720     0.9320    -3.6240 ca         1 HI1      -0.095000
     30 C54          0.8600     0.7130    -4.2700 ca         1 HI1      -0.114000
     31 C55          1.7400     1.7910    -4.5030 ca         1 HI1      -0.102000
     32 C59         -1.9300     4.2480    -2.8320 c5         1 HI1       0.157300
     33 O60         -2.5700     4.5860    -4.0690 oh         1 HI1      -0.641000
     34 C30        -10.2070     7.0800    -5.1080 c          1 HI1       0.637100
     35 C56          1.3890     3.0920    -4.0930 ca         1 HI1      -0.089000
     36 C58         -0.3940     4.5940    -2.9300 c5         1 HI1      -0.078100
     37 C41         -8.5100     6.5660    -6.9150 c3         1 HI1       0.047700
     38 C42         -8.7200     7.4170    -8.2270 c3         1 HI1      -0.041000
     39 C43        -10.2290     7.7410    -8.4180 c3         1 HI1      -0.089100
     40 C44         -7.9310     8.7550    -8.1610 c3         1 HI1      -0.089100
     41 C45         -7.0290     6.1360    -6.6720 c          1 HI1       0.594100
     42 N24         -5.3300     4.3990    -7.2120 n3         1 HI1      -0.487600
     43 O46         -6.2640     6.7720    -5.9520 o          1 HI1      -0.561100
     44 N47         -6.6480     4.9530    -7.3050 ns         1 HI1      -0.378300
     45 Br           1.4840     3.1580    -7.8450 br         1 HI1      -0.105100
     46 C86         -8.2470     6.6260    -9.4790 c3         1 HI1      -0.089100
     47 H401        -5.0700     3.6990    -4.5970 hc         1 HI1       0.081700
     48 H402        -6.7480     3.4110    -5.0210 hc         1 HI1       0.081700
     49 H141        -6.5120     1.0150    -4.8930 hc         1 HI1       0.037700
     50 H142        -4.7700     1.0780    -4.8960 hc         1 HI1       0.037700
     51 H4C1        -4.3300     2.6010    -6.7000 h1         1 HI1       0.031700
     52 H4C2        -6.0110     2.3860    -7.1950 h1         1 HI1       0.031700
     53 H221        -6.5850    -0.4190    -2.8540 hc         1 HI1       0.047700
     54 H222        -4.8450    -0.4610    -2.9540 hc         1 HI1       0.047700
     55 H6          -7.6280     1.6870    -2.9140 ho         1 HI1       0.444000
     56 H24         -3.4330    -0.3800    -0.9520 ha         1 HI1       0.107000
     57 H28         -7.7220     0.0890    -0.6260 ha         1 HI1       0.107000
     58 H25         -3.2850    -0.6950     1.5060 ha         1 HI1       0.110000
     59 H26         -5.3470    -0.6190     2.9060 ha         1 HI1       0.110000
     60 H27         -7.5640    -0.2280     1.8330 ha         1 HI1       0.110000
     61 H12         -3.2390     1.5690    -3.9070 hn         1 HI1       0.311500
     62 H51         -1.8490     2.4940    -1.4320 h1         1 HI1       0.084700
     63 H321        -4.6650     5.5630    -8.8540 h1         1 HI1       0.045700
     64 H322        -5.0380     3.8830    -9.2520 h1         1 HI1       0.045700
     65 H47         -7.3450     4.4900    -7.8820 hn         1 HI1       0.304500
     66 H59         -2.4020     4.8110    -2.0130 h1         1 HI1       0.103700
     67 H53         -1.0500     0.1020    -3.4340 ha         1 HI1       0.113000
     68 H54          1.1360    -0.2910    -4.5870 ha         1 HI1       0.113000
     69 H55          2.6920     1.6170    -5.0000 ha         1 HI1       0.115000
     70 H56          2.0640     3.9270    -4.2680 ha         1 HI1       0.120000
     71 H581         0.0240     4.8330    -1.9460 hc         1 HI1       0.067200
     72 H582        -0.1940     5.4460    -3.5890 hc         1 HI1       0.067200
     73 H60         -2.1930     3.9780    -4.7390 ho         1 HI1       0.440000
     74 H34         -2.7350     5.7500    -6.8750 ha         1 HI1       0.136000
     75 H38         -3.1380     2.5600    -9.7690 ha         1 HI1       0.136000
     76 H35         -0.3200     5.1990    -6.6090 ha         1 HI1       0.130500
     77 H37         -0.7260     2.0190    -9.5030 ha         1 HI1       0.130500
     78 H41         -9.0860     5.6370    -7.0130 h1         1 HI1       0.075700
     79 H431       -10.8290     6.8230    -8.4300 hc         1 HI1       0.040478
     80 H432       -10.4010     8.2670    -9.3650 hc         1 HI1       0.040478
     81 H433       -10.6080     8.3860    -7.6160 hc         1 HI1       0.040478
     82 H441        -8.2520     9.3680    -7.3100 hc         1 HI1       0.040478
     83 H442        -6.8530     8.5780    -8.0640 hc         1 HI1       0.040478
     84 H443        -8.0890     9.3450    -9.0720 hc         1 HI1       0.040478
     85 H861        -8.4930     7.1680   -10.4000 hc         1 HI1       0.040478
     86 H862        -8.7320     5.6430    -9.5300 hc         1 HI1       0.040478
     87 H863        -7.1610     6.4760    -9.4750 hc         1 HI1       0.040478
     88 H7C1       -12.3890     8.1110    -3.8710 h1         1 HI1       0.053367
     89 H7C2       -11.4670     8.5770    -2.4260 h1         1 HI1       0.053367
     90 H7C3       -11.6650     6.8590    -2.8310 h1         1 HI1       0.053367
     91 H1          -8.3910     7.9580    -5.2680 hn         1 HI1       0.334500
     92 C40         -5.7330     3.0150    -5.1370 c3         1 HI1      -0.087400
@<TRIPOS>BOND
     1     1     3 ar  
     2     1     8 ar  
     3     1    20 1   
     4     2     4 1   
     5     2    49 1   
     6     2    50 1   
     7     2    92 1   
     8     3     5 ar  
     9     3    56 1   
    10     4    20 1   
    11     4    21 1   
    12     4    23 1   
    13     5     6 ar  
    14     5    58 1   
    15     6     7 ar  
    16     6    59 1   
    17     7     8 ar  
    18     7    60 1   
    19     8    57 1   
    20     9    10 ar  
    21     9    14 ar  
    22     9    15 1   
    23    10    11 ar  
    24    10    74 1   
    25    11    12 ar  
    26    11    76 1   
    27    12    13 ar  
    28    12    45 1   
    29    13    14 ar  
    30    13    77 1   
    31    14    75 1   
    32    15    42 1   
    33    15    63 1   
    34    15    64 1   
    35    16    22 1   
    36    16    88 1   
    37    16    89 1   
    38    16    90 1   
    39    17    42 1   
    40    17    51 1   
    41    17    52 1   
    42    17    92 1   
    43    18    34 2   
    44    19    34 1   
    45    19    37 1   
    46    19    91 1   
    47    20    53 1   
    48    20    54 1   
    49    21    55 1   
    50    22    34 1   
    51    23    24 2   
    52    23    25 1   
    53    25    26 1   
    54    25    61 1   
    55    26    27 1   
    56    26    32 1   
    57    26    62 1   
    58    27    28 ar  
    59    27    29 ar  
    60    28    35 ar  
    61    28    36 1   
    62    29    30 ar  
    63    29    67 1   
    64    30    31 ar  
    65    30    68 1   
    66    31    35 ar  
    67    31    69 1   
    68    32    33 1   
    69    32    36 1   
    70    32    66 1   
    71    33    73 1   
    72    35    70 1   
    73    36    71 1   
    74    36    72 1   
    75    37    38 1   
    76    37    41 1   
    77    37    78 1   
    78    38    39 1   
    79    38    40 1   
    80    38    46 1   
    81    39    79 1   
    82    39    80 1   
    83    39    81 1   
    84    40    82 1   
    85    40    83 1   
    86    40    84 1   
    87    41    43 2   
    88    41    44 1   
    89    42    44 1   
    90    44    65 1   
    91    46    85 1   
    92    46    86 1   
    93    46    87 1   
    94    47    92 1   
    95    48    92 1   
@<TRIPOS>SUBSTRUCTURE
     1 HI1         1 TEMP              0 ****  ****    0 ROOT
