@<TRIPOS>MOLECULE
HI1
   92    95     1     0     0
SMALL
abcg2


@<TRIPOS>ATOM
      1 C23         -5.8880     0.3670    -1.0200 ca         1 HI1      -0.077300
      2 C14         -5.8650     1.7480    -4.6420 c3         1 HI1      -0.105400
      3 C24         -4.6970     0.3260    -0.2980 ca         1 HI1      -0.092000
      4 C1          -5.9150     1.8320    -3.1100 c3         1 HI1       0.113000
      5 C25         -4.7040     0.3210     1.0900 ca         1 HI1      -0.108500
      6 C26         -5.9080     0.3560     1.7800 ca         1 HI1      -0.105000
      7 C27         -7.1030     0.3910     1.0710 ca         1 HI1      -0.108500
      8 C28         -7.0900     0.3980    -0.3170 ca         1 HI1      -0.092000
      9 C33         -3.2480     4.0790    -8.5160 ca         1 HI1      -0.082300
     10 C34         -2.6700     4.8980    -7.5490 ca         1 HI1      -0.095000
     11 C35         -1.3050     4.8620    -7.3080 ca         1 HI1      -0.095000
     12 C36         -0.5100     3.9920    -8.0440 ca         1 HI1      -0.015900
     13 C37         -1.0620     3.1640    -9.0070 ca         1 HI1      -0.095000
     14 C38         -2.4320     3.2140    -9.2340 ca         1 HI1      -0.095000
     15 C32         -4.7300     4.1570    -8.7780 c3         1 HI1       0.218100
     16 C7          -9.4750     5.5820    -2.5770 c3         1 HI1       0.164900
     17 C4          -5.5330     2.9290    -6.8250 c3         1 HI1       0.169800
     18 O3          -9.1740     4.7620    -5.0960 o          1 HI1      -0.557000
     19 N1          -8.8130     6.8960    -5.7890 ns         1 HI1      -0.472900
     20 C22         -5.8750     0.4010    -2.5200 c3         1 HI1      -0.055100
     21 O6          -7.0620     2.5170    -2.6840 oh         1 HI1      -0.617000
     22 O8          -9.2350     6.4870    -3.6510 os         1 HI1      -0.447100
     23 C10         -4.7320     2.6300    -2.5390 c          1 HI1       0.618100
     24 O11         -4.8750     3.4970    -1.6990 o          1 HI1      -0.556100
     25 N12         -3.5190     2.2620    -2.9950 ns         1 HI1      -0.502900
     26 C51         -2.3020     2.9020    -2.5710 c5         1 HI1       0.124000
     27 C52         -1.0850     2.2340    -3.1590 ca         1 HI1      -0.122300
     28 C57         -0.1170     3.1880    -3.4580 ca         1 HI1      -0.086300
     29 C53         -0.8570     0.8890    -3.3990 ca         1 HI1      -0.095000
     30 C54          0.3560     0.5070    -3.9630 ca         1 HI1      -0.114000
     31 C55          1.3200     1.4600    -4.2740 ca         1 HI1      -0.102000
     32 C59         -2.1310     4.3830    -3.0150 c5         1 HI1       0.157300
     33 O60         -2.7480     4.6450    -4.2480 oh         1 HI1      -0.641000
     34 C30         -9.0770     5.9490    -4.8610 c          1 HI1       0.637100
     35 C56          1.0910     2.8080    -4.0190 ca         1 HI1      -0.089000
     36 C58         -0.6050     4.5560    -3.0740 c5         1 HI1      -0.078100
     37 C41         -8.3400     6.5070    -7.0960 c3         1 HI1       0.047700
     38 C42         -8.4800     7.6570    -8.1240 c3         1 HI1      -0.041000
     39 C43         -9.9680     7.9920    -8.2630 c3         1 HI1      -0.089100
     40 C44         -7.7130     8.9180    -7.7210 c3         1 HI1      -0.089100
     41 C45         -6.9050     5.9860    -6.9640 c          1 HI1       0.594100
     42 N24         -5.4590     4.1990    -7.5240 n3         1 HI1      -0.487600
     43 O46         -6.0660     6.5810    -6.3160 o          1 HI1      -0.561100
     44 N47         -6.6780     4.8240    -7.6100 ns         1 HI1      -0.378300
     45 BR           1.3510     3.9400    -7.7260 br         1 HI1      -0.105100
     46 C86         -7.9630     7.1700    -9.4790 c3         1 HI1      -0.089100
     47 H401        -5.0710     3.7470    -4.9190 hc         1 HI1       0.081700
     48 H402        -6.7980     3.5990    -5.2080 hc         1 HI1       0.081700
     49 H141        -6.7360     1.1740    -4.9760 hc         1 HI1       0.037700
     50 H142        -5.0050     1.1470    -4.9550 hc         1 HI1       0.037700
     51 H4C1        -4.5550     2.4530    -6.9300 h1         1 HI1       0.031700
     52 H4C2        -6.2610     2.2510    -7.3000 h1         1 HI1       0.031700
     53 H221        -6.7410    -0.1400    -2.9140 hc         1 HI1       0.047700
     54 H222        -4.9920    -0.1220    -2.8960 hc         1 HI1       0.047700
     55 H6          -7.8240     2.1230    -3.1200 ho         1 HI1       0.444000
     56 H24         -3.7520     0.2930    -0.8280 ha         1 HI1       0.107000
     57 H28         -8.0270     0.4150    -0.8600 ha         1 HI1       0.107000
     58 H25         -3.7680     0.2850     1.6330 ha         1 HI1       0.110000
     59 H26         -5.9170     0.3480     2.8620 ha         1 HI1       0.110000
     60 H27         -8.0460     0.4100     1.6020 ha         1 HI1       0.110000
     61 H12         -3.4570     1.6210    -3.7680 hn         1 HI1       0.311500
     62 H51         -2.2420     2.8740    -1.4770 h1         1 HI1       0.084700
     63 H321        -4.9480     5.0810    -9.3180 h1         1 HI1       0.045700
     64 H322        -5.0430     3.3280    -9.4290 h1         1 HI1       0.045700
     65 H47         -7.4430     4.3510    -8.0770 hn         1 HI1       0.304500
     66 H59         -2.5920     5.0610    -2.2990 h1         1 HI1       0.103700
     67 H53         -1.6010     0.1380    -3.1590 ha         1 HI1       0.113000
     68 H54          0.5500    -0.5380    -4.1640 ha         1 HI1       0.113000
     69 H55          2.2560     1.1490    -4.7200 ha         1 HI1       0.115000
     70 H56          1.8420     3.5470    -4.2660 ha         1 HI1       0.120000
     71 H581        -0.2200     4.8280    -2.0860 hc         1 HI1       0.067200
     72 H582        -0.3040     5.3480    -3.7620 hc         1 HI1       0.067200
     73 H60         -2.3610     4.0870    -4.9310 ho         1 HI1       0.440000
     74 H34         -3.3030     5.5610    -6.9720 ha         1 HI1       0.136000
     75 H38         -2.8650     2.5600    -9.9820 ha         1 HI1       0.136000
     76 H35         -0.8690     5.5170    -6.5640 ha         1 HI1       0.130500
     77 H37         -0.4460     2.4800    -9.5750 ha         1 HI1       0.130500
     78 H41         -8.9830     5.6960    -7.4520 h1         1 HI1       0.075700
     79 H431       -10.5420     7.1190    -8.5800 hc         1 HI1       0.040478
     80 H432       -10.1090     8.7710    -9.0140 hc         1 HI1       0.040478
     81 H433       -10.3970     8.3540    -7.3280 hc         1 HI1       0.040478
     82 H441        -8.0610     9.3440    -6.7770 hc         1 HI1       0.040478
     83 H442        -6.6420     8.7440    -7.6360 hc         1 HI1       0.040478
     84 H443        -7.8620     9.6870    -8.4820 hc         1 HI1       0.040478
     85 H861        -8.1460     7.9310   -10.2390 hc         1 HI1       0.040478
     86 H862        -8.4710     6.2570    -9.7960 hc         1 HI1       0.040478
     87 H863        -6.8900     6.9730    -9.4720 hc         1 HI1       0.040478
     88 H7C1       -10.4260     5.0620    -2.6930 h1         1 HI1       0.053367
     89 H7C2        -9.5090     6.1900    -1.6780 h1         1 HI1       0.053367
     90 H7C3        -8.6740     4.8470    -2.4860 h1         1 HI1       0.053367
     91 H1          -8.5800     7.8190    -5.4550 hn         1 HI1       0.334500
     92 C40         -5.8380     3.0990    -5.3470 c3         1 HI1      -0.087400
@<TRIPOS>BOND
     1     1     3 ar  
     2     1     8 ar  
     3     1    20 1   
     4     2     4 1   
     5     2    49 1   
     6     2    50 1   
     7     2    92 1   
     8     3     5 ar  
     9     3    56 1   
    10     4    20 1   
    11     4    21 1   
    12     4    23 1   
    13     5     6 ar  
    14     5    58 1   
    15     6     7 ar  
    16     6    59 1   
    17     7     8 ar  
    18     7    60 1   
    19     8    57 1   
    20     9    10 ar  
    21     9    14 ar  
    22     9    15 1   
    23    10    11 ar  
    24    10    74 1   
    25    11    12 ar  
    26    11    76 1   
    27    12    13 ar  
    28    12    45 1   
    29    13    14 ar  
    30    13    77 1   
    31    14    75 1   
    32    15    42 1   
    33    15    63 1   
    34    15    64 1   
    35    16    22 1   
    36    16    88 1   
    37    16    89 1   
    38    16    90 1   
    39    17    42 1   
    40    17    51 1   
    41    17    52 1   
    42    17    92 1   
    43    18    34 2   
    44    19    34 1   
    45    19    37 1   
    46    19    91 1   
    47    20    53 1   
    48    20    54 1   
    49    21    55 1   
    50    22    34 1   
    51    23    24 2   
    52    23    25 1   
    53    25    26 1   
    54    25    61 1   
    55    26    27 1   
    56    26    32 1   
    57    26    62 1   
    58    27    28 ar  
    59    27    29 ar  
    60    28    35 ar  
    61    28    36 1   
    62    29    30 ar  
    63    29    67 1   
    64    30    31 ar  
    65    30    68 1   
    66    31    35 ar  
    67    31    69 1   
    68    32    33 1   
    69    32    36 1   
    70    32    66 1   
    71    33    73 1   
    72    35    70 1   
    73    36    71 1   
    74    36    72 1   
    75    37    38 1   
    76    37    41 1   
    77    37    78 1   
    78    38    39 1   
    79    38    40 1   
    80    38    46 1   
    81    39    79 1   
    82    39    80 1   
    83    39    81 1   
    84    40    82 1   
    85    40    83 1   
    86    40    84 1   
    87    41    43 2   
    88    41    44 1   
    89    42    44 1   
    90    44    65 1   
    91    46    85 1   
    92    46    86 1   
    93    46    87 1   
    94    47    92 1   
    95    48    92 1   
@<TRIPOS>SUBSTRUCTURE
     1 HI1         1 TEMP              0 ****  ****    0 ROOT
