@<TRIPOS>MOLECULE
HI4
   49    52     1     0     0
SMALL
No Charge or Current Charge


@<TRIPOS>ATOM
      1 C1          -2.6380     0.6530     0.7010 ca         1 HI4      -0.148300
      2 N1          -0.1290     0.5100     1.1150 na         1 HI4      -0.074700
      3 O1          -1.2800    -2.2070     1.3370 o          1 HI4      -0.699500
      4 C2          -3.6750    -0.2710     0.9540 ca         1 HI4       0.025000
      5 N2           3.7680    -3.5440    -0.3880 ns         1 HI4      -0.371100
      6 O2           2.4060    -3.0440     1.3330 o          1 HI4      -0.536000
      7 C3          -4.7690    -0.3970     0.0650 ca         1 HI4      -0.207200
      8 N3          -5.8580    -1.3860     0.3450 no         1 HI4       0.702200
      9 O3          -0.0050    -2.8880    -0.2320 o          1 HI4      -0.699500
     10 C4          -4.8210     0.4180    -1.0870 ca         1 HI4      -0.023000
     11 O4          -5.7990    -2.0410     1.3930 o          1 HI4      -0.407500
     12 C5          -3.7980     1.3450    -1.3350 ca         1 HI4      -0.188000
     13 O5          -6.7760    -1.4940    -0.4790 o          1 HI4      -0.407500
     14 C6          -2.7180     1.4650    -0.4500 ca         1 HI4       0.228000
     15 C7           2.6070    -1.4240    -0.4630 cc         1 HI4      -0.037200
     16 C8           2.9380     1.8000    -0.2640 ca         1 HI4      -0.071000
     17 C9           2.8770     3.1880    -0.0160 ca         1 HI4      -0.126300
     18 C10          1.8450     0.9930     0.1070 ca         1 HI4      -0.066800
     19 C11          0.7660     1.5170     0.7650 ca         1 HI4      -0.063200
     20 C12          0.4140    -0.7200     0.6370 cd         1 HI4      -0.030300
     21 C13          1.6660    -0.4400     0.0490 cc         1 HI4      -0.140200
     22 C14          1.7430     3.7310     0.6290 ca         1 HI4      -0.121000
     23 C15          0.6850     2.8960     1.0380 ca         1 HI4      -0.117000
     24 C16         -0.3170    -2.0450     0.6000 c          1 HI4       0.731200
     25 C17         -1.4720     0.7680     1.6910 c3         1 HI4       0.140900
     26 C18          2.8630    -2.7230     0.2430 c          1 HI4       0.564200
     27 C19          4.4640    -3.2410    -1.5430 cc         1 HI4      -0.065400
     28 C20          4.2730    -2.0230    -2.1580 cd         1 HI4      -0.285000
     29 C21          3.3270    -1.0870    -1.6040 cd         1 HI4      -0.141000
     30 C22          4.0360     4.0880    -0.4250 c3         1 HI4      -0.018100
     31 C23          4.0300     4.3950    -1.9340 c3         1 HI4      -0.085100
     32 H2          -3.6200    -0.8970     1.8450 ha         1 HI4       0.191000
     33 HN2          3.9400    -4.4250     0.0800 hn         1 HI4       0.308500
     34 H4          -5.6500     0.3440    -1.7900 ha         1 HI4       0.141000
     35 H5          -3.8430     1.9800    -2.2170 ha         1 HI4       0.132000
     36 F1          -1.7690     2.3880    -0.7130 f          1 HI4      -0.161000
     37 H8           3.8300     1.3750    -0.7120 ha         1 HI4       0.104000
     38 H14          1.6890     4.7980     0.8300 ha         1 HI4       0.089000
     39 H15         -0.1660     3.3290     1.5560 ha         1 HI4       0.100000
     40 H17         -1.4940     1.7660     2.1420 h1         1 HI4       0.077700
     41 H17A        -1.6190     0.0660     2.5210 h1         1 HI4       0.077700
     42 H19          5.1400    -4.0270    -1.8700 h4         1 HI4       0.176000
     43 H20          4.8210    -1.7790    -3.0650 ha         1 HI4       0.178000
     44 H21          3.1370    -0.1520    -2.1240 ha         1 HI4       0.180000
     45 H22          4.0030     5.0330     0.1300 hc         1 HI4       0.032700
     46 H22A         4.9890     3.6130    -0.1630 hc         1 HI4       0.032700
     47 H23          4.8720     5.0480    -2.1940 hc         1 HI4       0.026700
     48 H23A         4.1170     3.4720    -2.5180 hc         1 HI4       0.026700
     49 H23B         3.1000     4.9010    -2.2200 hc         1 HI4       0.026700
@<TRIPOS>BOND
     1     1     4 ar  
     2     1    14 ar  
     3     1    25 1   
     4     2    19 1   
     5     2    20 1   
     6     2    25 1   
     7     3    24 1   
     8     4     7 ar  
     9     4    32 1   
    10     5    26 1   
    11     5    27 1   
    12     5    33 1   
    13     6    26 2   
    14     7     8 1   
    15     7    10 ar  
    16     8    11 1   
    17     8    13 1   
    18     9    24 1   
    19    10    12 ar  
    20    10    34 1   
    21    12    14 ar  
    22    12    35 1   
    23    14    36 1   
    24    15    21 1   
    25    15    26 1   
    26    15    29 2   
    27    16    17 ar  
    28    16    18 ar  
    29    16    37 1   
    30    17    22 ar  
    31    17    30 1   
    32    18    19 ar  
    33    18    21 1   
    34    19    23 ar  
    35    20    21 2   
    36    20    24 1   
    37    22    23 ar  
    38    22    38 1   
    39    23    39 1   
    40    25    40 1   
    41    25    41 1   
    42    27    28 2   
    43    27    42 1   
    44    28    29 1   
    45    28    43 1   
    46    29    44 1   
    47    30    31 1   
    48    30    45 1   
    49    30    46 1   
    50    31    47 1   
    51    31    48 1   
    52    31    49 1   
@<TRIPOS>SUBSTRUCTURE
     1 HI4         1 TEMP              0 ****  ****    0 ROOT
