@<TRIPOS>MOLECULE
HI4
   49    52     1     0     0
SMALL
abcg2


@<TRIPOS>ATOM
      1 C1          -2.5430     0.6800     0.6750 ca         1 HI4      -0.148300
      2 N1          -0.1260     0.6230     1.1470 na         1 HI4      -0.074700
      3 O1          -0.9980    -2.0340     1.9860 o          1 HI4      -0.699500
      4 C2          -3.4450    -0.3660     0.7880 ca         1 HI4       0.025000
      5 N2           3.6670    -3.4600    -0.2710 ns         1 HI4      -0.371100
      6 O2           2.5640    -2.6950     1.5460 o          1 HI4      -0.536000
      7 C3          -4.4520    -0.5230    -0.1550 ca         1 HI4      -0.207200
      8 N3          -5.3870    -1.6240    -0.0130 no         1 HI4       0.702200
      9 O3          -0.2300    -2.7440     0.0120 o          1 HI4      -0.699500
     10 C4          -4.5860     0.3420    -1.2310 ca         1 HI4      -0.023000
     11 O4          -5.2520    -2.3690     0.9290 o          1 HI4      -0.407500
     12 C5          -3.6920     1.3880    -1.3570 ca         1 HI4      -0.188000
     13 O5          -6.2560    -1.7420    -0.8450 o          1 HI4      -0.407500
     14 C6          -2.6980     1.5370    -0.4080 ca         1 HI4       0.228000
     15 C7           2.4310    -1.4390    -0.4780 cc         1 HI4      -0.037200
     16 C8           2.9660     1.7570    -0.2210 ca         1 HI4      -0.071000
     17 C9           2.9720     3.1190     0.0170 ca         1 HI4      -0.126300
     18 C10          1.8690     0.9840     0.1760 ca         1 HI4      -0.066800
     19 C11          0.7840     1.6010     0.8290 ca         1 HI4      -0.063200
     20 C12          0.3460    -0.5930     0.7020 cd         1 HI4      -0.030300
     21 C13          1.5640    -0.4110     0.0960 cc         1 HI4      -0.140200
     22 C14          1.8680     3.7080     0.6640 ca         1 HI4      -0.121000
     23 C15          0.7730     2.9730     1.0740 ca         1 HI4      -0.117000
     24 C16         -0.3670    -1.9070     0.9180 c          1 HI4       0.731200
     25 C17         -1.4440     0.8740     1.6900 c3         1 HI4       0.140900
     26 C18          2.8540    -2.5440     0.3640 c          1 HI4       0.564200
     27 C19          4.1120    -3.3760    -1.5470 cc         1 HI4      -0.065400
     28 C20          3.7530    -2.3250    -2.3220 cd         1 HI4      -0.285000
     29 C21          2.8950    -1.3500    -1.7590 cd         1 HI4      -0.141000
     30 C22          4.1160     3.9830    -0.4440 c3         1 HI4      -0.018100
     31 C23          3.8250     4.6670    -1.7790 c3         1 HI4      -0.085100
     32 H2          -3.3380    -1.0600     1.6080 ha         1 HI4       0.191000
     33 HN2          3.9780    -4.2420     0.2900 hn         1 HI4       0.308500
     34 H4          -5.3690     0.2160    -1.9640 ha         1 HI4       0.141000
     35 H5          -3.7680     2.0860    -2.1800 ha         1 HI4       0.132000
     36 F1          -1.8500     2.5570    -0.5400 f          1 HI4      -0.161000
     37 H8           3.8140     1.2880    -0.7100 ha         1 HI4       0.104000
     38 H14          1.8810     4.7760     0.8530 ha         1 HI4       0.089000
     39 H15         -0.0510     3.4600     1.5780 ha         1 HI4       0.100000
     40 H17         -1.4620     1.8930     2.0740 h1         1 HI4       0.077700
     41 H17A        -1.6200     0.2130     2.5340 h1         1 HI4       0.077700
     42 H19          4.7500    -4.1800    -1.8810 h4         1 HI4       0.176000
     43 H20          4.1030    -2.2470    -3.3400 ha         1 HI4       0.178000
     44 H21          2.5810    -0.5140    -2.3730 ha         1 HI4       0.180000
     45 H22          4.3300     4.7440     0.3100 hc         1 HI4       0.032700
     46 H22A         5.0190     3.3760    -0.5380 hc         1 HI4       0.032700
     47 H23          4.6630     5.2910    -2.0910 hc         1 HI4       0.026700
     48 H23A         3.6430     3.9300    -2.5630 hc         1 HI4       0.026700
     49 H23B         2.9420     5.3050    -1.7100 hc         1 HI4       0.026700
@<TRIPOS>BOND
     1     1     4 ar  
     2     1    14 ar  
     3     1    25 1   
     4     2    19 1   
     5     2    20 1   
     6     2    25 1   
     7     3    24 1   
     8     4     7 ar  
     9     4    32 1   
    10     5    26 1   
    11     5    27 1   
    12     5    33 1   
    13     6    26 2   
    14     7     8 1   
    15     7    10 ar  
    16     8    11 1   
    17     8    13 1   
    18     9    24 1   
    19    10    12 ar  
    20    10    34 1   
    21    12    14 ar  
    22    12    35 1   
    23    14    36 1   
    24    15    21 1   
    25    15    26 1   
    26    15    29 2   
    27    16    17 ar  
    28    16    18 ar  
    29    16    37 1   
    30    17    22 ar  
    31    17    30 1   
    32    18    19 ar  
    33    18    21 1   
    34    19    23 ar  
    35    20    21 2   
    36    20    24 1   
    37    22    23 ar  
    38    22    38 1   
    39    23    39 1   
    40    25    40 1   
    41    25    41 1   
    42    27    28 2   
    43    27    42 1   
    44    28    29 1   
    45    28    43 1   
    46    29    44 1   
    47    30    31 1   
    48    30    45 1   
    49    30    46 1   
    50    31    47 1   
    51    31    48 1   
    52    31    49 1   
@<TRIPOS>SUBSTRUCTURE
     1 HI4         1 TEMP              0 ****  ****    0 ROOT
