@<TRIPOS>MOLECULE
HI8
   55    58     1     0     0
SMALL
abcg2


@<TRIPOS>ATOM
      1 C1         -38.5730    -7.2430    38.1380 c3         1 HI8      -0.105100
      2 C10        -40.0870   -11.2770    39.8440 ca         1 HI8      -0.171900
      3 C11        -39.9320   -10.0750    39.1320 ca         1 HI8      -0.036000
      4 C12        -39.6090   -10.1420    37.7920 ca         1 HI8       0.001600
      5 C13        -40.4220   -11.1950    41.2620 ce         1 HI8       0.743800
      6 C15        -40.7710   -10.3360    43.2330 c          1 HI8       0.691500
      7 C17        -40.9830   -11.8640    43.3870 c5         1 HI8       0.139500
      8 C18        -42.4320   -12.1320    43.8050 c3         1 HI8      -0.079100
      9 C2         -39.3970    -7.7020    36.9340 c3         1 HI8       0.137700
     10 C20        -39.9680   -12.5370    44.3060 ca         1 HI8      -0.082300
     11 C21        -40.0520   -13.9170    44.5120 ca         1 HI8      -0.093000
     12 C22        -39.1210   -14.5750    45.3050 ca         1 HI8      -0.111500
     13 C23        -38.0900   -13.8610    45.9110 ca         1 HI8      -0.101000
     14 C24        -37.9980   -12.4890    45.7110 ca         1 HI8      -0.111500
     15 C25        -38.9300   -11.8320    44.9110 ca         1 HI8      -0.093000
     16 C26        -40.8260    -7.0920    36.8220 c3         1 HI8      -0.058000
     17 C27        -41.4610    -7.5310    35.4960 c3         1 HI8      -0.086767
     18 C28        -41.7500    -7.5110    37.9720 c3         1 HI8      -0.086767
     19 C29        -40.6920    -5.5610    36.8140 c3         1 HI8      -0.086767
     20 C4         -39.0390    -9.7870    35.6220 c          1 HI8       0.588000
     21 C7         -39.4270   -11.3970    37.1710 ca         1 HI8       0.031600
     22 C8         -39.5800   -12.5870    37.8630 ca         1 HI8      -0.129000
     23 C9         -39.9150   -12.5140    39.2070 ca         1 HI8      -0.079000
     24 N14        -40.4340   -10.0430    41.9380 nf         1 HI8      -0.736100
     25 N19        -40.7410   -12.2620    42.0000 nu         1 HI8      -0.909400
     26 N3         -39.3900    -9.1700    36.8170 n          1 HI8      -0.294000
     27 N6         -39.0920   -11.1470    35.8640 ns         1 HI8      -0.502600
     28 O16        -40.9140    -9.5300    44.1410 o          1 HI8      -0.528100
     29 O5         -38.7370    -9.2480    34.5670 o          1 HI8      -0.558000
     30 H1         -38.3050    -6.1950    38.0190 hc         1 HI8       0.049700
     31 H2         -39.1020    -7.3440    39.0840 hc         1 HI8       0.049700
     32 H3         -37.6510    -7.8210    38.1970 hc         1 HI8       0.049700
     33 H4         -40.0750    -9.1430    39.6480 ha         1 HI8       0.160000
     34 H5         -42.5950   -11.7300    44.8050 hc         1 HI8       0.053033
     35 H6         -43.1190   -11.6480    43.1100 hc         1 HI8       0.053033
     36 H7         -42.6420   -13.2010    43.8170 hc         1 HI8       0.053033
     37 H8         -38.8670    -7.3810    36.0370 h1         1 HI8       0.079700
     38 H9         -40.8430   -14.4880    44.0440 ha         1 HI8       0.119500
     39 H10        -39.2010   -15.6450    45.4510 ha         1 HI8       0.115500
     40 H11        -37.3640   -14.3720    46.5310 ha         1 HI8       0.115000
     41 H12        -37.2000   -11.9240    46.1750 ha         1 HI8       0.115500
     42 H13        -38.8450   -10.7630    44.7730 ha         1 HI8       0.119500
     43 H14        -41.5840    -8.6140    35.4500 hc         1 HI8       0.038811
     44 H15        -42.4500    -7.0790    35.3920 hc         1 HI8       0.038811
     45 H16        -40.8520    -7.2200    34.6460 hc         1 HI8       0.038811
     46 H17        -41.3440    -7.2350    38.9460 hc         1 HI8       0.038811
     47 H18        -42.7140    -7.0100    37.8620 hc         1 HI8       0.038811
     48 H19        -41.9340    -8.5860    37.9650 hc         1 HI8       0.038811
     49 H20        -40.3550    -5.1770    37.7770 hc         1 HI8       0.038811
     50 H21        -39.9860    -5.2330    36.0470 hc         1 HI8       0.038811
     51 H22        -41.6620    -5.1090    36.5960 hc         1 HI8       0.038811
     52 H23        -39.4340   -13.5400    37.3710 ha         1 HI8       0.127000
     53 H24        -40.0220   -13.4370    39.7600 ha         1 HI8       0.111000
     54 H25        -40.8050   -13.2110    41.6710 hn         1 HI8       0.515000
     55 H26        -38.8810   -11.8350    35.1580 hn         1 HI8       0.471000
@<TRIPOS>BOND
     1     1     9 1   
     2     1    30 1   
     3     1    31 1   
     4     1    32 1   
     5     2     3 ar  
     6     2     5 1   
     7     2    23 ar  
     8     3     4 ar  
     9     3    33 1   
    10     4    21 ar  
    11     4    26 1   
    12     5    24 2   
    13     5    25 1   
    14     6     7 1   
    15     6    24 1   
    16     6    28 2   
    17     7     8 1   
    18     7    10 1   
    19     7    25 1   
    20     8    34 1   
    21     8    35 1   
    22     8    36 1   
    23     9    16 1   
    24     9    26 1   
    25     9    37 1   
    26    10    11 ar  
    27    10    15 ar  
    28    11    12 ar  
    29    11    38 1   
    30    12    13 ar  
    31    12    39 1   
    32    13    14 ar  
    33    13    40 1   
    34    14    15 ar  
    35    14    41 1   
    36    15    42 1   
    37    16    17 1   
    38    16    18 1   
    39    16    19 1   
    40    17    43 1   
    41    17    44 1   
    42    17    45 1   
    43    18    46 1   
    44    18    47 1   
    45    18    48 1   
    46    19    49 1   
    47    19    50 1   
    48    19    51 1   
    49    20    26 1   
    50    20    27 1   
    51    20    29 2   
    52    21    22 ar  
    53    21    27 1   
    54    22    23 ar  
    55    22    52 1   
    56    23    53 1   
    57    25    54 1   
    58    27    55 1   
@<TRIPOS>SUBSTRUCTURE
     1 HI8         1 TEMP              0 ****  ****    0 ROOT
