@<TRIPOS>MOLECULE
HI8
   55    58     1     0     0
SMALL
No Charge or Current Charge


@<TRIPOS>ATOM
      1 C1         -38.4170    -7.8720    38.7890 c3         1 HI8      -0.105100
      2 C10        -40.9490   -11.6850    39.6850 ca         1 HI8      -0.171900
      3 C11        -40.5280   -10.4420    39.1380 ca         1 HI8      -0.036000
      4 C12        -39.8360   -10.4410    37.9150 ca         1 HI8       0.001600
      5 C13        -41.6480   -11.7270    41.0040 ce         1 HI8       0.743800
      6 C15        -41.9100   -10.8060    43.0210 c          1 HI8       0.691500
      7 C17        -41.4560   -12.2730    43.2330 c5         1 HI8       0.139500
      8 C18        -42.5630   -13.0370    44.0050 c3         1 HI8      -0.079100
      9 C2         -39.1410    -7.9650    37.4180 c3         1 HI8       0.137700
     10 C20        -40.0500   -12.3200    43.8710 ca         1 HI8      -0.082300
     11 C21        -39.7740   -13.0440    45.0580 ca         1 HI8      -0.093000
     12 C22        -38.4800   -13.0620    45.6070 ca         1 HI8      -0.111500
     13 C23        -37.4370   -12.3600    44.9850 ca         1 HI8      -0.101000
     14 C24        -37.6900   -11.6400    43.8090 ca         1 HI8      -0.111500
     15 C25        -38.9830   -11.6210    43.2580 ca         1 HI8      -0.093000
     16 C26        -40.3560    -6.9740    37.2220 c3         1 HI8      -0.058000
     17 C27        -40.8770    -7.0640    35.7590 c3         1 HI8      -0.086767
     18 C28        -41.5430    -7.2870    38.1740 c3         1 HI8      -0.086767
     19 C29        -39.8990    -5.5080    37.4680 c3         1 HI8      -0.086767
     20 C4         -39.0050    -9.9140    35.8040 c          1 HI8       0.588000
     21 C7         -39.7250   -11.6130    37.1850 ca         1 HI8       0.031600
     22 C8         -40.1480   -12.8520    37.6660 ca         1 HI8      -0.129000
     23 C9         -40.7490   -12.8830    38.9400 ca         1 HI8      -0.079000
     24 N14        -42.0070   -10.6600    41.6460 nf         1 HI8      -0.736100
     25 N19        -41.4090   -12.8240    41.8450 nu         1 HI8      -0.909400
     26 N3         -39.4380    -9.3730    37.0320 n          1 HI8      -0.294000
     27 N6         -39.2060   -11.2540    35.9430 ns         1 HI8      -0.502600
     28 O16        -42.1350    -9.9130    43.8260 o          1 HI8      -0.528100
     29 O5         -38.5250    -9.3420    34.8410 o          1 HI8      -0.558000
     30 H1         -37.9230    -6.9010    38.9030 hc         1 HI8       0.049700
     31 H2         -39.1000    -8.0000    39.6330 hc         1 HI8       0.049700
     32 H3         -37.6380    -8.6410    38.8600 hc         1 HI8       0.049700
     33 H4         -40.7220    -9.5160    39.6670 ha         1 HI8       0.160000
     34 H5         -42.6900   -12.6370    45.0180 hc         1 HI8       0.053033
     35 H6         -43.5310   -12.9500    43.4960 hc         1 HI8       0.053033
     36 H7         -42.3310   -14.1050    44.0850 hc         1 HI8       0.053033
     37 H8         -38.3820    -7.6250    36.7010 h1         1 HI8       0.079700
     38 H9         -40.5520   -13.6020    45.5710 ha         1 HI8       0.119500
     39 H10        -38.2860   -13.6230    46.5190 ha         1 HI8       0.115500
     40 H11        -36.4360   -12.3760    45.4120 ha         1 HI8       0.115000
     41 H12        -36.8840   -11.0950    43.3220 ha         1 HI8       0.115500
     42 H13        -39.1500   -11.0540    42.3450 ha         1 HI8       0.119500
     43 H14        -41.2830    -8.0580    35.5390 hc         1 HI8       0.038811
     44 H15        -41.6790    -6.3360    35.5810 hc         1 HI8       0.038811
     45 H16        -40.0730    -6.8570    35.0430 hc         1 HI8       0.038811
     46 H17        -41.2470    -7.2100    39.2270 hc         1 HI8       0.038811
     47 H18        -42.3640    -6.5780    38.0140 hc         1 HI8       0.038811
     48 H19        -41.9410    -8.2920    37.9930 hc         1 HI8       0.038811
     49 H20        -39.6280    -5.3410    38.5180 hc         1 HI8       0.038811
     50 H21        -39.0320    -5.2560    36.8460 hc         1 HI8       0.038811
     51 H22        -40.7020    -4.8000    37.2260 hc         1 HI8       0.038811
     52 H23        -40.0430   -13.7550    37.0690 ha         1 HI8       0.127000
     53 H24        -41.1010   -13.8360    39.3300 ha         1 HI8       0.111000
     54 H25        -40.6200   -13.3860    41.5360 hn         1 HI8       0.515000
     55 H26        -38.9740   -11.9140    35.2080 hn         1 HI8       0.471000
@<TRIPOS>BOND
     1     1     9 1   
     2     1    30 1   
     3     1    31 1   
     4     1    32 1   
     5     2     3 ar  
     6     2     5 1   
     7     2    23 ar  
     8     3     4 ar  
     9     3    33 1   
    10     4    21 ar  
    11     4    26 1   
    12     5    24 2   
    13     5    25 1   
    14     6     7 1   
    15     6    24 1   
    16     6    28 2   
    17     7     8 1   
    18     7    10 1   
    19     7    25 1   
    20     8    34 1   
    21     8    35 1   
    22     8    36 1   
    23     9    16 1   
    24     9    26 1   
    25     9    37 1   
    26    10    11 ar  
    27    10    15 ar  
    28    11    12 ar  
    29    11    38 1   
    30    12    13 ar  
    31    12    39 1   
    32    13    14 ar  
    33    13    40 1   
    34    14    15 ar  
    35    14    41 1   
    36    15    42 1   
    37    16    17 1   
    38    16    18 1   
    39    16    19 1   
    40    17    43 1   
    41    17    44 1   
    42    17    45 1   
    43    18    46 1   
    44    18    47 1   
    45    18    48 1   
    46    19    49 1   
    47    19    50 1   
    48    19    51 1   
    49    20    26 1   
    50    20    27 1   
    51    20    29 2   
    52    21    22 ar  
    53    21    27 1   
    54    22    23 ar  
    55    22    52 1   
    56    23    53 1   
    57    25    54 1   
    58    27    55 1   
@<TRIPOS>SUBSTRUCTURE
     1 HI8         1 TEMP              0 ****  ****    0 ROOT
