@<TRIPOS>MOLECULE
HI9
   48    49     1     0     0
SMALL
abcg2


@<TRIPOS>ATOM
      1 C10          8.6990     3.5170    14.8630 ca         1 HI9      -0.129900
      2 C12          8.1900     1.9680    13.1640 c3         1 HI9       0.154600
      3 C13          8.6280     0.6010    12.6760 c3         1 HI9      -0.080400
      4 C14          8.4550    -0.5210    13.6800 c3         1 HI9       0.178600
      5 C01          5.1830     3.4860    15.3930 c3         1 HI9      -0.084100
      6 C02          6.5010     3.0160    16.0050 c3         1 HI9      -0.133700
      7 C03          7.6380     3.9260    15.6390 ca         1 HI9       0.184300
      8 C05          8.5400     6.0100    15.7790 ca         1 HI9       0.401900
      9 C08          9.6980     4.4750    14.5770 ca         1 HI9       0.400900
     10 C16          6.6800    -1.4270    14.9840 ca         1 HI9       0.603300
     11 C18          7.1630    -3.1260    16.4280 ca         1 HI9       0.382900
     12 C19          5.8760    -3.1570    16.9200 ca         1 HI9      -0.206000
     13 C20          4.9610    -2.2560    16.3880 ca         1 HI9      -0.044000
     14 C21          5.3240    -1.3640    15.3860 ca         1 HI9      -0.119800
     15 C22          4.3130    -0.4460    14.8640 ce         1 HI9      -0.135200
     16 C23          4.3240     0.2610    13.7300 c2         1 HI9      -0.214200
     17 C24          3.2200     1.1530    13.2770 c3         1 HI9       0.195800
     18 N04          7.5580     5.1800    16.1060 nb         1 HI9      -0.282000
     19 N06          8.4340     7.2960    16.2070 nv         1 HI9      -1.046900
     20 N07          9.6110     5.7160    15.0390 nb         1 HI9      -0.325000
     21 N09         10.7560     4.1540    13.8090 nv         1 HI9      -1.066900
     22 N17          7.5540    -2.2720    15.4840 nb         1 HI9      -0.765000
     23 O11          8.8540     2.2440    14.3940 os         1 HI9      -0.350100
     24 O15          7.0810    -0.5630    14.0520 os         1 HI9      -0.469300
     25 O25          2.2140     1.2580    14.2490 oh         1 HI9      -0.660000
     26 H121         7.1050     2.0060    13.3060 h1         1 HI9       0.037200
     27 H122         8.4450     2.7230    12.4130 h1         1 HI9       0.037200
     28 H132         8.0750     0.3750    11.7610 hc         1 HI9       0.053700
     29 H131         9.6850     0.6290    12.3990 hc         1 HI9       0.053700
     30 H142         8.7560    -1.4710    13.2320 h1         1 HI9       0.054700
     31 H141         9.0810    -0.3630    14.5600 h1         1 HI9       0.054700
     32 H012         4.3670     2.8220    15.6770 hc         1 HI9       0.038033
     33 H011         4.9330     4.4930    15.7260 hc         1 HI9       0.038033
     34 H013         5.2370     3.4950    14.3030 hc         1 HI9       0.038033
     35 H021         6.4100     3.0080    17.0940 hc         1 HI9       0.064700
     36 H022         6.7070     1.9910    15.6990 hc         1 HI9       0.064700
     37 H181         7.9190    -3.8060    16.8030 h4         1 HI9       0.018100
     38 H191         5.5930    -3.8560    17.6940 ha         1 HI9       0.126000
     39 H201         3.9400    -2.2440    16.7520 ha         1 HI9       0.121000
     40 H221         3.4320    -0.3790    15.4940 ha         1 HI9       0.185000
     41 H231         5.1580     0.2130    13.0440 ha         1 HI9       0.187000
     42 H241         3.6560     2.1330    13.0330 h1         1 HI9       0.023200
     43 H242         2.8310     0.7590    12.3260 h1         1 HI9       0.023200
     44 H062         7.7950     7.4720    16.9640 hn         1 HI9       0.482000
     45 H061         9.2740     7.8500    16.2140 hn         1 HI9       0.482000
     46 H092        11.5260     4.8000    13.7640 hn         1 HI9       0.491000
     47 H091        10.9690     3.1870    13.6350 hn         1 HI9       0.491000
     48 H251         1.5170     1.8220    13.9020 ho         1 HI9       0.445000
@<TRIPOS>BOND
     1     1     7 ar  
     2     1     9 ar  
     3     1    23 1   
     4     2     3 1   
     5     2    23 1   
     6     2    26 1   
     7     2    27 1   
     8     3     4 1   
     9     3    28 1   
    10     3    29 1   
    11     4    24 1   
    12     4    30 1   
    13     4    31 1   
    14     5     6 1   
    15     5    32 1   
    16     5    33 1   
    17     5    34 1   
    18     6     7 1   
    19     6    35 1   
    20     6    36 1   
    21     7    18 ar  
    22     8    18 ar  
    23     8    19 1   
    24     8    20 ar  
    25     9    20 ar  
    26     9    21 1   
    27    10    14 ar  
    28    10    22 ar  
    29    10    24 1   
    30    11    12 ar  
    31    11    22 ar  
    32    11    37 1   
    33    12    13 ar  
    34    12    38 1   
    35    13    14 ar  
    36    13    39 1   
    37    14    15 1   
    38    15    16 2   
    39    15    40 1   
    40    16    17 1   
    41    16    41 1   
    42    17    25 1   
    43    17    42 1   
    44    17    43 1   
    45    19    44 1   
    46    19    45 1   
    47    21    46 1   
    48    21    47 1   
    49    25    48 1   
@<TRIPOS>SUBSTRUCTURE
     1 HI9         1 TEMP              0 ****  ****    0 ROOT
