@<TRIPOS>MOLECULE
HI9
   48    49     1     0     0
SMALL
No Charge or Current Charge


@<TRIPOS>ATOM
      1 C10          8.8590     3.6250    14.7300 ca         1 HI9      -0.129900
      2 C12          8.2800     1.9850    13.0170 c3         1 HI9       0.154600
      3 C13          8.6360     0.5230    12.6800 c3         1 HI9      -0.080400
      4 C14          8.3320    -0.4750    13.8170 c3         1 HI9       0.178600
      5 C01          6.3220     2.1710    16.5480 c3         1 HI9      -0.084100
      6 C02          7.8020     2.5170    16.8050 c3         1 HI9      -0.133700
      7 C03          8.2640     3.7330    16.0070 ca         1 HI9       0.184300
      8 C05          8.4520     6.0070    15.8700 ca         1 HI9       0.401900
      9 C08          9.2360     4.8340    14.1010 ca         1 HI9       0.400900
     10 C16          6.3430    -1.1920    15.0710 ca         1 HI9       0.603300
     11 C18          6.5680    -2.7740    16.7520 ca         1 HI9       0.382900
     12 C19          5.2260    -2.6350    17.1280 ca         1 HI9      -0.206000
     13 C20          4.4090    -1.7330    16.4340 ca         1 HI9      -0.044000
     14 C21          4.9650    -0.9980    15.3720 ca         1 HI9      -0.119800
     15 C22          4.0830    -0.0270    14.6490 ce         1 HI9      -0.135200
     16 C23          4.1340     0.2620    13.3290 c2         1 HI9      -0.214200
     17 C24          3.2350     1.2360    12.6080 c3         1 HI9       0.195800
     18 N04          8.0570     4.9390    16.5770 nb         1 HI9      -0.282000
     19 N06          8.2470     7.2120    16.4470 nv         1 HI9      -1.046900
     20 N07          9.0350     6.0280    14.6670 nb         1 HI9      -0.325000
     21 N09          9.8670     4.8760    12.8960 nv         1 HI9      -1.066900
     22 N17          7.1240    -2.0680    15.7460 nb         1 HI9      -0.765000
     23 O11          9.0710     2.3870    14.1500 os         1 HI9      -0.350100
     24 O15          6.9160    -0.4430    14.0670 os         1 HI9      -0.469300
     25 O25          1.9760     0.6120    12.3510 oh         1 HI9      -0.660000
     26 H121         7.2090     2.0620    13.2460 h1         1 HI9       0.037200
     27 H122         8.4870     2.6200    12.1470 h1         1 HI9       0.037200
     28 H132         8.0840     0.2200    11.7820 hc         1 HI9       0.053700
     29 H131         9.7010     0.4630    12.4280 hc         1 HI9       0.053700
     30 H142         8.6510    -1.4810    13.5110 h1         1 HI9       0.054700
     31 H141         8.8970    -0.1940    14.7160 h1         1 HI9       0.054700
     32 H012         6.0310     1.2800    17.1170 hc         1 HI9       0.038033
     33 H011         5.6720     3.0000    16.8530 hc         1 HI9       0.038033
     34 H013         6.1510     1.9730    15.4840 hc         1 HI9       0.038033
     35 H021         7.9450     2.6920    17.8780 hc         1 HI9       0.064700
     36 H022         8.4180     1.6430    16.5590 hc         1 HI9       0.064700
     37 H181         7.2220    -3.4700    17.2760 h4         1 HI9       0.018100
     38 H191         4.8290    -3.2240    17.9500 ha         1 HI9       0.126000
     39 H201         3.3640    -1.6110    16.7100 ha         1 HI9       0.121000
     40 H221         3.3210     0.4470    15.2720 ha         1 HI9       0.185000
     41 H231         4.8590    -0.2200    12.6740 ha         1 HI9       0.187000
     42 H241         3.0980     2.1360    13.2230 h1         1 HI9       0.023200
     43 H242         3.7080     1.5440    11.6660 h1         1 HI9       0.023200
     44 H062         8.0170     7.2410    17.4380 hn         1 HI9       0.482000
     45 H061         8.7210     8.0240    16.0600 hn         1 HI9       0.482000
     46 H092        10.3260     5.7440    12.6320 hn         1 HI9       0.491000
     47 H091        10.2940     4.0180    12.5600 hn         1 HI9       0.491000
     48 H251         1.4220     1.2770    11.8850 ho         1 HI9       0.445000
@<TRIPOS>BOND
     1     1     7 ar  
     2     1     9 ar  
     3     1    23 1   
     4     2     3 1   
     5     2    23 1   
     6     2    26 1   
     7     2    27 1   
     8     3     4 1   
     9     3    28 1   
    10     3    29 1   
    11     4    24 1   
    12     4    30 1   
    13     4    31 1   
    14     5     6 1   
    15     5    32 1   
    16     5    33 1   
    17     5    34 1   
    18     6     7 1   
    19     6    35 1   
    20     6    36 1   
    21     7    18 ar  
    22     8    18 ar  
    23     8    19 1   
    24     8    20 ar  
    25     9    20 ar  
    26     9    21 1   
    27    10    14 ar  
    28    10    22 ar  
    29    10    24 1   
    30    11    12 ar  
    31    11    22 ar  
    32    11    37 1   
    33    12    13 ar  
    34    12    38 1   
    35    13    14 ar  
    36    13    39 1   
    37    14    15 1   
    38    15    16 2   
    39    15    40 1   
    40    16    17 1   
    41    16    41 1   
    42    17    25 1   
    43    17    42 1   
    44    17    43 1   
    45    19    44 1   
    46    19    45 1   
    47    21    46 1   
    48    21    47 1   
    49    25    48 1   
@<TRIPOS>SUBSTRUCTURE
     1 HI9         1 TEMP              0 ****  ****    0 ROOT
