@<TRIPOS>MOLECULE
HIA
   21    21     1     0     0
SMALL
bcc


@<TRIPOS>ATOM
      1 N           23.8890    19.8510     8.4720 n8         1 HIA      -0.912800
      2 CA          23.7310    18.4100     8.5180 c3         1 HIA       0.076500
      3 CB          23.2910    17.9600     9.9230 c3         1 HIA       0.001900
      4 CG          24.2950    18.2550    10.9810 cc         1 HIA      -0.232900
      5 ND1         24.3010    19.4020    11.7280 na         1 HIA      -0.303900
      6 CD2         25.3830    17.5530    11.4260 cd         1 HIA       0.307200
      7 CE1         25.3560    19.3480    12.5680 cc         1 HIA       0.389400
      8 NE2         26.0350    18.2410    12.4100 nd         1 HIA      -0.671000
      9 C           22.6660    17.9350     7.5310 c          1 HIA       0.666100
     10 O           22.6340    16.7720     7.1560 o          1 HIA      -0.610100
     11 NXT         21.7790    18.8660     7.1670 nt         1 HIA      -0.665000
     12 H           24.3410    20.1210     7.6070 hn         1 HIA       0.352800
     13 H2          24.5110    20.1580     9.2100 hn         1 HIA       0.352800
     14 HA          24.6480    17.8620     8.2660 h1         1 HIA       0.061700
     15 HB2         23.1140    16.8840     9.9000 hc         1 HIA       0.070200
     16 HB3         22.3370    18.4370    10.1660 hc         1 HIA       0.070200
     17 HD1         23.6230    20.1470    11.6750 hn         1 HIA       0.302700
     18 HD2         25.7200    16.5860    11.0840 h4         1 HIA       0.041100
     19 HE1         25.5750    20.1360    13.2710 h5         1 HIA       0.056100
     20 HXT1        21.0170    18.6430     6.5470 hn         1 HIA       0.324000
     21 HXT2        21.8740    19.8080     7.5110 hn         1 HIA       0.324000
@<TRIPOS>BOND
     1     1     2 1   
     2     1    12 1   
     3     1    13 1   
     4     2     3 1   
     5     2     9 1   
     6     2    14 1   
     7     3     4 1   
     8     3    15 1   
     9     3    16 1   
    10     4     5 1   
    11     4     6 2   
    12     5     7 1   
    13     5    17 1   
    14     6     8 1   
    15     6    18 1   
    16     7     8 2   
    17     7    19 1   
    18     9    10 2   
    19     9    11 1   
    20    11    20 1   
    21    11    21 1   
@<TRIPOS>SUBSTRUCTURE
     1 HIA         1 TEMP              0 ****  ****    0 ROOT
