@<TRIPOS>MOLECULE
HIA
   21    21     1     0     0
SMALL
No Charge or Current Charge


@<TRIPOS>ATOM
      1 N           24.1460    19.9100     8.3900 n8         1 HIA      -0.912800
      2 CA          23.7550    18.4580     8.4700 c3         1 HIA       0.076500
      3 CB          23.2330    18.1210     9.8920 c3         1 HIA       0.001900
      4 CG          24.2530    18.3560    10.9820 cc         1 HIA      -0.232900
      5 ND1         24.3250    19.4810    11.7760 na         1 HIA      -0.303900
      6 CD2         25.2680    17.5400    11.4220 cd         1 HIA       0.307200
      7 CE1         25.3710    19.3160    12.6520 cc         1 HIA       0.389400
      8 NE2         25.9580    18.1450    12.4560 nd         1 HIA      -0.671000
      9 C           22.7470    17.9760     7.3650 c          1 HIA       0.666100
     10 O           23.0120    17.1210     6.5350 o          1 HIA      -0.610100
     11 NXT         21.5340    18.5750     7.3500 nt         1 HIA      -0.665000
     12 H           24.6840    20.0750     7.5310 hn         1 HIA       0.352800
     13 H2          24.8080    20.1130     9.1470 hn         1 HIA       0.352800
     14 HA          24.6700    17.8690     8.3140 h1         1 HIA       0.061700
     15 HB2         22.9250    17.0680     9.9120 hc         1 HIA       0.070200
     16 HB3         22.3260    18.7040    10.0980 hc         1 HIA       0.070200
     17 HD1         23.7230    20.2940    11.7370 hn         1 HIA       0.302700
     18 HD2         25.5380    16.5570    11.0530 h4         1 HIA       0.041100
     19 HE1         25.6430    20.0650    13.3880 h5         1 HIA       0.056100
     20 HXT1        20.8610    18.3120     6.6470 hn         1 HIA       0.324000
     21 HXT2        21.3410    19.3200     8.0030 hn         1 HIA       0.324000
@<TRIPOS>BOND
     1     1     2 1   
     2     1    12 1   
     3     1    13 1   
     4     2     3 1   
     5     2     9 1   
     6     2    14 1   
     7     3     4 1   
     8     3    15 1   
     9     3    16 1   
    10     4     5 1   
    11     4     6 2   
    12     5     7 1   
    13     5    17 1   
    14     6     8 1   
    15     6    18 1   
    16     7     8 2   
    17     7    19 1   
    18     9    10 2   
    19     9    11 1   
    20    11    20 1   
    21    11    21 1   
@<TRIPOS>SUBSTRUCTURE
     1 HIA         1 TEMP              0 ****  ****    0 ROOT
