@<TRIPOS>MOLECULE
HIB
   26    26     1     0     0
SMALL
No Charge or Current Charge


@<TRIPOS>ATOM
      1 C1          -0.1310    -0.1750    -0.7960 ca         1 HIB       0.157000
      2 C2           1.1800    -0.2610    -0.2810 ca         1 HIB       0.126100
      3 C3           1.4190    -0.1280     1.0970 ca         1 HIB      -0.048900
      4 C4           0.3210     0.0490     1.9790 ca         1 HIB       0.149100
      5 C5          -0.9890     0.1520     1.4680 ca         1 HIB      -0.150600
      6 C6          -1.2250     0.0450     0.0730 ca         1 HIB       0.010700
      7 C7          -2.1160     0.3490     2.4340 c          1 HIB       0.728600
      8 C8          -2.6380     0.1460    -0.5110 c3         1 HIB      -0.046800
      9 C9           3.2860     0.8830     2.3430 c3         1 HIB       0.145900
     10 CX           0.9700    -1.0830     4.0320 c3         1 HIB       0.155900
     11 O2           2.2540    -0.4560    -1.1070 oh         1 HIB      -0.537100
     12 O3           2.7380    -0.1700     1.5250 os         1 HIB      -0.374100
     13 O4           0.4950     0.0880     3.3450 os         1 HIB      -0.352100
     14 O7          -2.6960    -0.6440     2.8490 o          1 HIB      -0.708000
     15 O8          -2.4460     1.4960     2.7030 o          1 HIB      -0.708000
     16 I1          -0.4410    -0.3760    -2.9610 i          1 HIB      -0.363000
     17 H81         -2.9220    -0.7880    -1.0090 hc         1 HIB       0.049033
     18 H82         -3.4080     0.3530     0.2380 hc         1 HIB       0.049033
     19 H83         -2.6980     0.9530    -1.2510 hc         1 HIB       0.049033
     20 H91          4.3620     0.7270     2.4880 h1         1 HIB       0.032367
     21 H92          3.1460     1.8590     1.8600 h1         1 HIB       0.032367
     22 H93          2.8190     0.9180     3.3330 h1         1 HIB       0.032367
     23 HX1          1.0390    -0.8900     5.1100 h1         1 HIB       0.033700
     24 HX2          0.2820    -1.9240     3.8790 h1         1 HIB       0.033700
     25 HX3          1.9630    -1.3810     3.6750 h1         1 HIB       0.033700
     26 HO2          3.0440    -0.4780    -0.5220 ho         1 HIB       0.468000
@<TRIPOS>BOND
     1     1     2 ar  
     2     1     6 ar  
     3     1    16 1   
     4     2     3 ar  
     5     2    11 1   
     6     3     4 ar  
     7     3    12 1   
     8     4     5 ar  
     9     4    13 1   
    10     5     6 ar  
    11     5     7 1   
    12     6     8 1   
    13     7    14 1   
    14     7    15 1   
    15     8    17 1   
    16     8    18 1   
    17     8    19 1   
    18     9    12 1   
    19     9    20 1   
    20     9    21 1   
    21     9    22 1   
    22    10    13 1   
    23    10    23 1   
    24    10    24 1   
    25    10    25 1   
    26    11    26 1   
@<TRIPOS>SUBSTRUCTURE
     1 HIB         1 TEMP              0 ****  ****    0 ROOT
