@<TRIPOS>MOLECULE
HIB
   26    26     1     0     0
SMALL
bcc


@<TRIPOS>ATOM
      1 C1          -0.0430    -0.0980    -0.6960 ca         1 HIB       0.019900
      2 C2           1.2520    -0.1830    -0.1980 ca         1 HIB       0.126100
      3 C3           1.4460    -0.1320     1.1830 ca         1 HIB      -0.048900
      4 C4           0.3510    -0.0080     2.0280 ca         1 HIB       0.149100
      5 C5          -0.9410     0.0820     1.5200 ca         1 HIB      -0.150600
      6 C6          -1.1530     0.0540     0.1400 ca         1 HIB       0.010700
      7 C7          -2.0890     0.2340     2.5150 c          1 HIB       0.939200
      8 C8          -2.5420     0.1530    -0.4230 c3         1 HIB      -0.046800
      9 C9           3.2960     1.0040     2.0810 c3         1 HIB       0.122700
     10 CX           0.7110    -1.2040     4.0060 c3         1 HIB       0.132700
     11 O2           2.2920    -0.3140    -1.0360 oh         1 HIB      -0.498100
     12 O3           2.7240    -0.2300     1.6490 os         1 HIB      -0.350900
     13 O4           0.5460     0.0590     3.3730 os         1 HIB      -0.328900
     14 O7          -2.5230    -0.8200     3.0120 o          1 HIB      -0.813300
     15 O8          -2.4780     1.3950     2.7260 o          1 HIB      -0.813300
     16 I1          -0.2600    -0.2050    -2.7890 i          1 HIB      -0.225900
     17 H81         -2.8350    -0.7730    -0.9220 hc         1 HIB       0.049033
     18 H82         -3.2800     0.3580     0.3480 hc         1 HIB       0.049033
     19 H83         -2.6180     0.9530    -1.1600 hc         1 HIB       0.049033
     20 H91          4.3310     0.7990     2.3430 h1         1 HIB       0.032367
     21 H92          3.2730     1.7540     1.2860 h1         1 HIB       0.032367
     22 H93          2.7800     1.3980     2.9570 h1         1 HIB       0.032367
     23 HX1          0.8360    -1.0130     5.0700 h1         1 HIB       0.033700
     24 HX2         -0.1680    -1.8340     3.8610 h1         1 HIB       0.033700
     25 HX3          1.5960    -1.7300     3.6400 h1         1 HIB       0.033700
     26 HO2          3.1020    -0.4370    -0.5220 ho         1 HIB       0.429000
@<TRIPOS>BOND
     1     1     2 ar  
     2     1     6 ar  
     3     1    16 1   
     4     2     3 ar  
     5     2    11 1   
     6     3     4 ar  
     7     3    12 1   
     8     4     5 ar  
     9     4    13 1   
    10     5     6 ar  
    11     5     7 1   
    12     6     8 1   
    13     7    14 1   
    14     7    15 1   
    15     8    17 1   
    16     8    18 1   
    17     8    19 1   
    18     9    12 1   
    19     9    20 1   
    20     9    21 1   
    21     9    22 1   
    22    10    13 1   
    23    10    23 1   
    24    10    24 1   
    25    10    25 1   
    26    11    26 1   
@<TRIPOS>SUBSTRUCTURE
     1 HIB         1 TEMP              0 ****  ****    0 ROOT
