@<TRIPOS>MOLECULE
HIC
   22    22     1     0     0
SMALL
No Charge or Current Charge


@<TRIPOS>ATOM
      1 N           22.2850    -2.1070    77.0270 n8         1 HIC      -0.877800
      2 CA          23.5210    -2.2720    76.1720 c3         1 HIC       0.023500
      3 C           23.2950    -2.6530    74.6420 c          1 HIC       0.932600
      4 O           23.6190    -1.8430    73.7780 o          1 HIC      -0.837300
      5 CB          24.4990    -3.2630    76.8560 c3         1 HIC      -0.131700
      6 CG          25.0330    -2.7830    78.1770 cc         1 HIC       0.346600
      7 ND1         26.0460    -1.8680    78.2370 nc         1 HIC      -0.660000
      8 CD2         24.6370    -3.1710    79.4270 cd         1 HIC      -0.295600
      9 CE1         26.2840    -1.6690    79.5260 cd         1 HIC       0.370400
     10 NE2         25.4360    -2.4520    80.2970 na         1 HIC      -0.202900
     11 CZ          25.4030    -2.5120    81.7650 c3         1 HIC       0.038600
     12 OXT         22.7490    -3.7200    74.3690 o          1 HIC      -0.837300
     13 H           22.5640    -1.9720    78.0040 hn         1 HIC       0.319300
     14 H2          21.7580    -2.9860    77.0240 hn         1 HIC       0.319300
     15 HA          24.0230    -1.2940    76.1540 h1         1 HIC       0.058700
     16 HB2         24.0070    -4.2340    76.9860 hc         1 HIC       0.054700
     17 HB3         25.3450    -3.4430    76.1810 hc         1 HIC       0.054700
     18 HD2         23.8770    -3.8760    79.7410 h4         1 HIC       0.166000
     19 HE1         27.0230    -1.0060    79.9610 h5         1 HIC       0.036100
     20 HZ1         25.7750    -1.5690    82.1840 h1         1 HIC       0.040700
     21 HZ2         24.3730    -2.6770    82.1060 h1         1 HIC       0.040700
     22 HZ3         26.0360    -3.3380    82.1120 h1         1 HIC       0.040700
@<TRIPOS>BOND
     1     1     2 1   
     2     1    13 1   
     3     1    14 1   
     4     2     3 1   
     5     2     5 1   
     6     2    15 1   
     7     3     4 1   
     8     3    12 1   
     9     5     6 1   
    10     5    16 1   
    11     5    17 1   
    12     6     7 1   
    13     6     8 2   
    14     7     9 2   
    15     8    10 1   
    16     8    18 1   
    17     9    10 1   
    18     9    19 1   
    19    10    11 1   
    20    11    20 1   
    21    11    21 1   
    22    11    22 1   
@<TRIPOS>SUBSTRUCTURE
     1 HIC         1 TEMP              0 ****  ****    0 ROOT
