@<TRIPOS>MOLECULE
HIC
   22    22     1     0     0
SMALL
bcc


@<TRIPOS>ATOM
      1 N           22.3480    -2.0800    77.0040 n8         1 HIC      -0.877800
      2 CA          23.5390    -2.2430    76.1900 c3         1 HIC       0.023500
      3 C           23.1930    -2.7640    74.7740 c          1 HIC       0.932600
      4 O           24.0830    -2.6190    73.9120 o          1 HIC      -0.837300
      5 CB          24.6000    -3.1820    76.8070 c3         1 HIC      -0.131700
      6 CG          25.0750    -2.7250    78.1430 cc         1 HIC       0.346600
      7 ND1         25.8880    -1.6330    78.2930 nc         1 HIC      -0.660000
      8 CD2         24.7730    -3.2390    79.3760 cd         1 HIC      -0.295600
      9 CE1         26.0710    -1.5020    79.5820 cd         1 HIC       0.370400
     10 NE2         25.4190    -2.4480    80.2860 na         1 HIC      -0.202900
     11 CZ          25.4100    -2.6020    81.7220 c3         1 HIC       0.038600
     12 OXT         22.0870    -3.3180    74.6210 o          1 HIC      -0.837300
     13 H           22.6040    -2.0020    77.9810 hn         1 HIC       0.319300
     14 H2          21.7830    -2.9160    76.9170 hn         1 HIC       0.319300
     15 HA          24.0120    -1.2610    76.0760 h1         1 HIC       0.058700
     16 HB2         24.1780    -4.1880    76.8970 hc         1 HIC       0.054700
     17 HB3         25.4480    -3.2520    76.1230 hc         1 HIC       0.054700
     18 HD2         24.1720    -4.0840    79.6720 h4         1 HIC       0.166000
     19 HE1         26.6690    -0.7430    80.0660 h5         1 HIC       0.036100
     20 HZ1         26.0200    -1.8200    82.1680 h1         1 HIC       0.040700
     21 HZ2         24.3970    -2.5170    82.1110 h1         1 HIC       0.040700
     22 HZ3         25.8190    -3.5690    82.0090 h1         1 HIC       0.040700
@<TRIPOS>BOND
     1     1     2 1   
     2     1    13 1   
     3     1    14 1   
     4     2     3 1   
     5     2     5 1   
     6     2    15 1   
     7     3     4 1   
     8     3    12 1   
     9     5     6 1   
    10     5    16 1   
    11     5    17 1   
    12     6     7 1   
    13     6     8 2   
    14     7     9 2   
    15     8    10 1   
    16     8    18 1   
    17     9    10 1   
    18     9    19 1   
    19    10    11 1   
    20    11    20 1   
    21    11    21 1   
    22    11    22 1   
@<TRIPOS>SUBSTRUCTURE
     1 HIC         1 TEMP              0 ****  ****    0 ROOT
