@<TRIPOS>MOLECULE
HID
   22    23     1     0     0
SMALL
No Charge or Current Charge


@<TRIPOS>ATOM
      1 OAA          3.5960     0.0110     0.9590 o          1 HID      -0.730500
      2 OAB          2.4030     1.7690     0.6100 o          1 HID      -0.730500
      3 CAD         -3.1280     0.1660     0.2720 ca         1 HID      -0.129000
      4 CAE         -2.6010    -1.1410     0.3730 ca         1 HID      -0.121000
      5 CAF          0.8470    -2.1970    -0.2320 cc         1 HID      -0.207100
      6 CAG         -0.9260     1.0390    -0.3720 ca         1 HID      -0.112000
      7 CAH          2.1080    -0.0500    -0.8910 c3         1 HID      -0.162200
      8 NAI         -0.4910    -2.4800     0.1210 na         1 HID      -0.242700
      9 CAJ          2.7830     0.6480     0.3040 c          1 HID       0.719000
     10 CAK         -2.2960     1.2510    -0.0970 ca         1 HID       0.071100
     11 CAL          0.8830    -0.8270    -0.4690 cd         1 HID      -0.039400
     12 CAM         -1.2400    -1.3180     0.0950 ca         1 HID      -0.079200
     13 CAN         -0.4370    -0.2710    -0.2630 ca         1 HID      -0.041800
     14 HOAC        -2.1170     3.1320    -0.4450 ho         1 HID       0.456000
     15 HAD         -4.1800     0.3390     0.4810 ha         1 HID       0.104000
     16 HAE         -3.2330    -1.9790     0.6560 ha         1 HID       0.094000
     17 HAF          1.6250    -2.9520    -0.2840 h4         1 HID       0.197000
     18 HAG         -0.2690     1.8560    -0.6550 ha         1 HID       0.133000
     19 HAH          1.7690     0.6990    -1.6160 hc         1 HID       0.027700
     20 HAHA         2.8000    -0.7800    -1.3280 hc         1 HID       0.027700
     21 HNAI        -0.8550    -3.3990     0.3580 hn         1 HID       0.328000
     22 OAC         -2.8280     2.5040    -0.1870 oh         1 HID      -0.562100
@<TRIPOS>BOND
     1     1     9 1   
     2     2     9 1   
     3     3     4 ar  
     4     3    10 ar  
     5     3    15 1   
     6     4    12 ar  
     7     4    16 1   
     8     5     8 1   
     9     5    11 2   
    10     5    17 1   
    11     6    10 ar  
    12     6    13 ar  
    13     6    18 1   
    14     7     9 1   
    15     7    11 1   
    16     7    19 1   
    17     7    20 1   
    18     8    12 1   
    19     8    21 1   
    20    10    22 1   
    21    11    13 1   
    22    12    13 ar  
    23    14    22 1   
@<TRIPOS>SUBSTRUCTURE
     1 HID         1 TEMP              0 ****  ****    0 ROOT
