@<TRIPOS>MOLECULE
HID
   22    23     1     0     0
SMALL
abcg2


@<TRIPOS>ATOM
      1 OAA          2.2320     0.8070     1.3210 o          1 HID      -0.730500
      2 OAB          3.5750     1.6720    -0.2320 o          1 HID      -0.730500
      3 CAD         -3.0800     0.0780     0.3880 ca         1 HID      -0.129000
      4 CAE         -2.5830    -1.2100     0.3860 ca         1 HID      -0.121000
      5 CAF          0.7930    -2.1880    -0.3650 cc         1 HID      -0.207100
      6 CAG         -0.9170     0.9960    -0.2200 ca         1 HID      -0.112000
      7 CAH          2.1070    -0.0560    -0.9110 c3         1 HID      -0.162200
      8 NAI         -0.4830    -2.5300    -0.0110 na         1 HID      -0.242700
      9 CAJ          2.6820     0.8950     0.1660 c          1 HID       0.719000
     10 CAK         -2.2530     1.1760     0.0850 ca         1 HID       0.071100
     11 CAL          0.9030    -0.8330    -0.5110 cd         1 HID      -0.039400
     12 CAM         -1.2390    -1.3940     0.0720 ca         1 HID      -0.079200
     13 CAN         -0.3980    -0.3050    -0.2360 ca         1 HID      -0.041800
     14 HOAC        -2.1870     3.0810    -0.0900 ho         1 HID       0.456000
     15 HAD         -4.1220     0.2540     0.6250 ha         1 HID       0.104000
     16 HAE         -3.2290    -2.0470     0.6210 ha         1 HID       0.094000
     17 HAF          1.5470    -2.9500    -0.4910 h4         1 HID       0.197000
     18 HAG         -0.2830     1.8460    -0.4500 ha         1 HID       0.133000
     19 HAH          1.8920     0.5370    -1.8070 hc         1 HID       0.027700
     20 HAHA         2.9050    -0.7430    -1.2100 hc         1 HID       0.027700
     21 HNAI        -0.8100    -3.4680     0.1430 hn         1 HID       0.328000
     22 OAC         -2.8380     2.4020     0.1160 oh         1 HID      -0.562100
@<TRIPOS>BOND
     1     1     9 1   
     2     2     9 1   
     3     3     4 ar  
     4     3    10 ar  
     5     3    15 1   
     6     4    12 ar  
     7     4    16 1   
     8     5     8 1   
     9     5    11 2   
    10     5    17 1   
    11     6    10 ar  
    12     6    13 ar  
    13     6    18 1   
    14     7     9 1   
    15     7    11 1   
    16     7    19 1   
    17     7    20 1   
    18     8    12 1   
    19     8    21 1   
    20    10    22 1   
    21    11    13 1   
    22    12    13 ar  
    23    14    22 1   
@<TRIPOS>SUBSTRUCTURE
     1 HID         1 TEMP              0 ****  ****    0 ROOT
