@<TRIPOS>MOLECULE
HIE
   60    63     1     0     0
SMALL
No Charge or Current Charge


@<TRIPOS>ATOM
      1 C8           3.4250     0.8190     0.4650 c6         1 HIE       0.238500
      2 C5           2.2280    -1.3800     0.2640 ca         1 HIE       0.418000
      3 C6           2.4460    -2.6420    -0.3360 ca         1 HIE      -0.252600
      4 N1           3.9790    -4.3870    -1.1360 nt         1 HIE      -0.596000
      5 C2           0.0270    -2.8230    -0.7060 ca         1 HIE      -0.168000
      6 O2           4.8350    -2.7160     0.0150 o          1 HIE      -0.638100
      7 N2           3.2840    -0.6150     0.7400 nu         1 HIE      -0.962200
      8 N3          -1.4700    -1.0360     0.0020 na         1 HIE       0.239000
      9 C3          -0.1810    -1.5730    -0.1020 ca         1 HIE       0.077800
     10 C4           0.9290    -0.8680     0.3900 ca         1 HIE      -0.236000
     11 N4          -2.4900    -1.7770     0.5550 nc         1 HIE      -0.457800
     12 C10          3.4930     3.1450     1.5260 c6         1 HIE      -0.087400
     13 C11          4.8530     3.4440     0.8400 c6         1 HIE       0.170300
     14 C12          5.0130     2.5990    -0.4540 c6         1 HIE      -0.087400
     15 C13          4.8000     1.0820    -0.1960 c6         1 HIE      -0.090400
     16 C14         -3.5140    -0.9300     0.4920 cd         1 HIE       0.192300
     17 C15         -3.1360     0.3210    -0.0790 cd         1 HIE      -0.263600
     18 C16         -1.8110     0.2480    -0.3930 cc         1 HIE      -0.074300
     19 C19         -3.1320     2.7140    -0.9480 c6         1 HIE      -0.173400
     20 C1           1.3210    -3.3560    -0.8190 ca         1 HIE      -0.024000
     21 F1          -4.9250    -2.5770     1.5290 f          1 HIE      -0.100667
     22 F2          -5.3480    -0.4910     1.9540 f          1 HIE      -0.100667
     23 F3          -5.8140    -1.3230    -0.0030 f          1 HIE      -0.100667
     24 O3           5.9320     3.1840     1.7440 oh         1 HIE      -0.657000
     25 C7           3.8360    -3.2270    -0.4650 c          1 HIE       0.631700
     26 C9           3.2830     1.6270     1.7790 c6         1 HIE      -0.090400
     27 C17         -0.9970     1.3170    -1.0810 c6         1 HIE      -0.016100
     28 C18         -1.9350     2.2920    -1.8610 c6         1 HIE      -0.034000
     29 C20         -3.9360     1.5340    -0.3680 c          1 HIE       0.618700
     30 C22         -2.4670     1.6130    -3.1620 c3         1 HIE      -0.089100
     31 C23         -4.8990    -1.3320     0.9930 c3         1 HIE       0.298700
     32 H8           2.6440     1.1510    -0.2380 h1         1 HIE       0.045700
     33 HN1          3.1810    -4.8390    -1.5530 hn         1 HIE       0.316000
     34 HN1A         4.9000    -4.7880    -1.2250 hn         1 HIE       0.316000
     35 H2          -0.8200    -3.3880    -1.0910 ha         1 HIE       0.145000
     36 HN2          4.1570    -1.1560     0.6880 hn         1 HIE       0.529000
     37 H4           0.7760     0.0870     0.8800 ha         1 HIE       0.128000
     38 H10          3.4220     3.6950     2.4740 hc         1 HIE       0.047450
     39 H10A         2.6780     3.5220     0.8920 hc         1 HIE       0.047450
     40 H11          4.8670     4.5080     0.5600 h1         1 HIE       0.032700
     41 H12          4.2840     2.9440    -1.2000 hc         1 HIE       0.047450
     42 H12A         6.0040     2.7690    -0.8970 hc         1 HIE       0.047450
     43 H13          5.6060     0.6990     0.4450 hc         1 HIE       0.057700
     44 H13A         4.8690     0.5350    -1.1460 hc         1 HIE       0.057700
     45 H19         -2.6960     3.2180    -0.0750 hc         1 HIE       0.072200
     46 H19A        -3.8140     3.4280    -1.4280 hc         1 HIE       0.072200
     47 H21         -0.7370     4.0960    -1.4310 hc         1 HIE       0.040867
     48 H21A        -0.2850     3.2900    -2.9380 hc         1 HIE       0.040867
     49 H21B        -1.7660     4.2550    -2.8590 hc         1 HIE       0.040867
     50 H1           1.4260    -4.3320    -1.2860 ha         1 HIE       0.116000
     51 HO3          6.7570     3.4490     1.2820 ho         1 HIE       0.441000
     52 H9           2.2910     1.4600     2.2180 hc         1 HIE       0.057700
     53 H9A          4.0140     1.2700     2.5180 hc         1 HIE       0.057700
     54 H17         -0.4230     1.8780    -0.3300 hc         1 HIE       0.066200
     55 H17A        -0.2560     0.8760    -1.7620 hc         1 HIE       0.066200
     56 H22         -3.1350     2.2830    -3.7180 hc         1 HIE       0.040867
     57 H22A        -1.6450     1.3370    -3.8340 hc         1 HIE       0.040867
     58 H22B        -3.0290     0.6970    -2.9470 hc         1 HIE       0.040867
     59 C21         -1.1350     3.5550    -2.2980 c3         1 HIE      -0.089100
     60 O1          -5.1440     1.6100    -0.1920 o          1 HIE      -0.507100
@<TRIPOS>BOND
     1     1     7 1   
     2     1    15 1   
     3     1    26 1   
     4     1    32 1   
     5     2     3 ar  
     6     2     7 1   
     7     2    10 ar  
     8     3    20 ar  
     9     3    25 1   
    10     4    25 1   
    11     4    33 1   
    12     4    34 1   
    13     5     9 ar  
    14     5    20 ar  
    15     5    35 1   
    16     6    25 2   
    17     7    36 1   
    18     8     9 1   
    19     8    11 1   
    20     8    18 1   
    21     9    10 ar  
    22    10    37 1   
    23    11    16 2   
    24    12    13 1   
    25    12    26 1   
    26    12    38 1   
    27    12    39 1   
    28    13    14 1   
    29    13    24 1   
    30    13    40 1   
    31    14    15 1   
    32    14    41 1   
    33    14    42 1   
    34    15    43 1   
    35    15    44 1   
    36    16    17 1   
    37    16    31 1   
    38    17    18 2   
    39    17    29 1   
    40    18    27 1   
    41    19    28 1   
    42    19    29 1   
    43    19    45 1   
    44    19    46 1   
    45    20    50 1   
    46    21    31 1   
    47    22    31 1   
    48    23    31 1   
    49    24    51 1   
    50    26    52 1   
    51    26    53 1   
    52    27    28 1   
    53    27    54 1   
    54    27    55 1   
    55    28    30 1   
    56    28    59 1   
    57    29    60 2   
    58    30    56 1   
    59    30    57 1   
    60    30    58 1   
    61    47    59 1   
    62    48    59 1   
    63    49    59 1   
@<TRIPOS>SUBSTRUCTURE
     1 HIE         1 TEMP              0 ****  ****    0 ROOT
