@<TRIPOS>MOLECULE
HIE
   60    63     1     0     0
SMALL
abcg2


@<TRIPOS>ATOM
      1 C8           3.5110     0.9070     0.2090 c6         1 HIE       0.238500
      2 C5           2.3670    -1.2710    -0.1550 ca         1 HIE       0.418000
      3 C6           2.4270    -2.6660    -0.4280 ca         1 HIE      -0.252600
      4 N1           3.7230    -4.4720    -1.3540 nt         1 HIE      -0.596000
      5 C2          -0.0030    -2.8240    -0.3360 ca         1 HIE      -0.168000
      6 O2           4.7770    -2.9140    -0.1290 o          1 HIE      -0.638100
      7 N2           3.4810    -0.5120    -0.0690 nu         1 HIE      -0.962200
      8 N3          -1.3110    -0.8250     0.0440 na         1 HIE       0.239000
      9 C3          -0.0520    -1.4550    -0.1080 ca         1 HIE       0.077800
     10 C4           1.0910    -0.6920    -0.0040 ca         1 HIE      -0.236000
     11 N4          -2.2680    -1.4400     0.7500 nc         1 HIE      -0.457800
     12 C10          3.3550     2.7400     1.9270 c6         1 HIE      -0.087400
     13 C11          4.6620     3.3490     1.4400 c6         1 HIE       0.170300
     14 C12          4.9030     2.9860    -0.0230 c6         1 HIE      -0.087400
     15 C13          4.8410     1.4820    -0.2700 c6         1 HIE      -0.090400
     16 C14         -3.3040    -0.6450     0.7060 cd         1 HIE       0.192300
     17 C15         -3.0270     0.5180    -0.0420 cd         1 HIE      -0.263600
     18 C16         -1.7230     0.3550    -0.4600 cc         1 HIE      -0.074300
     19 C19         -3.0520     2.7200    -1.2020 c6         1 HIE      -0.173400
     20 C1           1.2430    -3.3980    -0.4880 ca         1 HIE      -0.024000
     21 F1          -4.4440    -2.1880     2.0340 f          1 HIE      -0.100667
     22 F2          -4.9150    -0.1070     2.3110 f          1 HIE      -0.100667
     23 F3          -5.5830    -1.1350     0.5420 f          1 HIE      -0.100667
     24 O3           5.6950     2.8670     2.2800 oh         1 HIE      -0.657000
     25 C7           3.7350    -3.3480    -0.6200 c          1 HIE       0.631700
     26 C9           3.2950     1.2340     1.6890 c6         1 HIE      -0.090400
     27 C17         -0.9840     1.3000    -1.3330 c6         1 HIE      -0.016100
     28 C18         -1.9800     2.1480    -2.1470 c6         1 HIE      -0.034000
     29 C20         -3.8180     1.6830    -0.4150 c          1 HIE       0.618700
     30 C22         -2.6380     1.3040    -3.2410 c3         1 HIE      -0.089100
     31 C23         -4.5660    -1.0210     1.4020 c3         1 HIE       0.298700
     32 H8           2.7200     1.3910    -0.3770 h1         1 HIE       0.045700
     33 HN1          2.9340    -4.7480    -1.9110 hn         1 HIE       0.316000
     34 HN1A         4.5890    -4.9600    -1.5180 hn         1 HIE       0.316000
     35 H2          -0.9020    -3.4200    -0.3950 ha         1 HIE       0.145000
     36 HN2          4.3500    -1.0210     0.0020 hn         1 HIE       0.529000
     37 H4           1.0030     0.3550     0.2450 ha         1 HIE       0.128000
     38 H10          3.2090     2.9650     2.9860 hc         1 HIE       0.047450
     39 H10A         2.5330     3.2280     1.3930 hc         1 HIE       0.047450
     40 H11          4.5900     4.4430     1.5190 h1         1 HIE       0.032700
     41 H12          4.1410     3.4840    -0.6310 hc         1 HIE       0.047450
     42 H12A         5.8650     3.3840    -0.3570 hc         1 HIE       0.047450
     43 H13          5.6620     0.9810     0.2550 hc         1 HIE       0.057700
     44 H13A         4.9710     1.2730    -1.3340 hc         1 HIE       0.057700
     45 H19         -2.5680     3.3770    -0.4670 hc         1 HIE       0.072200
     46 H19A        -3.7600     3.3410    -1.7570 hc         1 HIE       0.072200
     47 H21         -0.7320     3.9290    -2.0470 hc         1 HIE       0.040867
     48 H21A        -0.4510     2.9280    -3.4730 hc         1 HIE       0.040867
     49 H21B        -1.8950     3.9350    -3.3740 hc         1 HIE       0.040867
     50 H1           1.2870    -4.4680    -0.6470 ha         1 HIE       0.116000
     51 HO3          6.5330     3.2160     1.9580 ho         1 HIE       0.441000
     52 H9           2.3330     0.8450     2.0320 hc         1 HIE       0.057700
     53 H9A          4.0630     0.7240     2.2770 hc         1 HIE       0.057700
     54 H17         -0.3750     1.9650    -0.7120 hc         1 HIE       0.066200
     55 H17A        -0.2970     0.7720    -1.9980 hc         1 HIE       0.066200
     56 H22         -3.3230     1.9130    -3.8320 hc         1 HIE       0.040867
     57 H22A        -1.8860     0.8980    -3.9200 hc         1 HIE       0.040867
     58 H22B        -3.2080     0.4620    -2.8440 hc         1 HIE       0.040867
     59 C21         -1.2200     3.3020    -2.7960 c3         1 HIE      -0.089100
     60 O1          -4.9810     1.8210    -0.0940 o          1 HIE      -0.507100
@<TRIPOS>BOND
     1     1     7 1   
     2     1    15 1   
     3     1    26 1   
     4     1    32 1   
     5     2     3 ar  
     6     2     7 1   
     7     2    10 ar  
     8     3    20 ar  
     9     3    25 1   
    10     4    25 1   
    11     4    33 1   
    12     4    34 1   
    13     5     9 ar  
    14     5    20 ar  
    15     5    35 1   
    16     6    25 2   
    17     7    36 1   
    18     8     9 1   
    19     8    11 1   
    20     8    18 1   
    21     9    10 ar  
    22    10    37 1   
    23    11    16 2   
    24    12    13 1   
    25    12    26 1   
    26    12    38 1   
    27    12    39 1   
    28    13    14 1   
    29    13    24 1   
    30    13    40 1   
    31    14    15 1   
    32    14    41 1   
    33    14    42 1   
    34    15    43 1   
    35    15    44 1   
    36    16    17 1   
    37    16    31 1   
    38    17    18 2   
    39    17    29 1   
    40    18    27 1   
    41    19    28 1   
    42    19    29 1   
    43    19    45 1   
    44    19    46 1   
    45    20    50 1   
    46    21    31 1   
    47    22    31 1   
    48    23    31 1   
    49    24    51 1   
    50    26    52 1   
    51    26    53 1   
    52    27    28 1   
    53    27    54 1   
    54    27    55 1   
    55    28    30 1   
    56    28    59 1   
    57    29    60 2   
    58    30    56 1   
    59    30    57 1   
    60    30    58 1   
    61    47    59 1   
    62    48    59 1   
    63    49    59 1   
@<TRIPOS>SUBSTRUCTURE
     1 HIE         1 TEMP              0 ****  ****    0 ROOT
