@<TRIPOS>MOLECULE
HIG
   58    63     1     0     0
SMALL
bcc


@<TRIPOS>ATOM
      1 N1          -2.8090     1.0850     0.0130 na         1 HIG      -0.256000
      2 C2          -1.8250     2.0610     0.4260 c5         1 HIG       0.113300
      3 C3          -2.8620    -0.2280     0.4190 ca         1 HIG       0.417800
      4 C4          -3.8360     1.2560    -0.8790 cc         1 HIG       0.422800
      5 C5          -0.4040     1.6520     0.1430 ca         1 HIG      -0.089300
      6 C6          -1.8050     2.3700     1.9340 c5         1 HIG      -0.091400
      7 C7          -3.9500    -0.7790    -0.2630 ca         1 HIG      -0.047900
      8 N8          -2.0590    -0.8400     1.2670 nb         1 HIG      -0.670000
      9 N9          -4.5380     0.1700    -1.0600 nd         1 HIG      -0.571100
     10 C10         -4.0770     2.5300    -1.6130 c3         1 HIG      -0.095700
     11 C11          0.4290     2.1020     1.1570 ca         1 HIG      -0.070300
     12 C12          0.1030     0.9540    -0.9380 ca         1 HIG      -0.091000
     13 C13         -0.3650     2.8320     2.2060 c5         1 HIG      -0.029100
     14 C14         -4.2520    -2.1220    -0.0490 ca         1 HIG       0.021700
     15 C15         -2.3340    -2.1260     1.4670 ca         1 HIG       0.448600
     16 C16         -3.1190     2.7140    -2.7930 c3         1 HIG      -0.091100
     17 C17          1.7890     1.8490     1.1070 ca         1 HIG      -0.090000
     18 C18          1.4630     0.6880    -0.9810 ca         1 HIG      -0.117000
     19 C19         -3.4060    -2.7800     0.8360 ca         1 HIG      -0.275300
     20 C20         -5.4050    -2.7920    -0.7220 c3         1 HIG      -0.044800
     21 C21         -1.4210    -2.8770     2.3880 c3         1 HIG      -0.150400
     22 C22          2.3120     1.1220     0.0380 cp         1 HIG      -0.041000
     23 C23          3.7590     0.8230    -0.0270 cp         1 HIG       0.018000
     24 C24          4.2330    -0.4890    -0.1590 ca         1 HIG      -0.140500
     25 C25          4.6870     1.8610     0.0010 ca         1 HIG      -0.123000
     26 C26          3.3140    -1.6270    -0.0890 cc         1 HIG       0.450000
     27 C27          5.5960    -0.7360    -0.2980 ca         1 HIG      -0.108000
     28 C28          6.0450     1.6120    -0.1250 ca         1 HIG      -0.107000
     29 N29          3.2000    -2.5860    -1.0110 na         1 HIG      -0.162400
     30 N30          2.4880    -1.9300     0.8850 nd         1 HIG      -0.360000
     31 C31          6.5030     0.3120    -0.2860 ca         1 HIG      -0.129000
     32 N32          2.3040    -3.4680    -0.6090 nc         1 HIG      -0.205800
     33 N33          1.8890    -3.0620     0.5270 nd         1 HIG      -0.050000
     34 H2          -2.0480     2.9840    -0.1160 h1         1 HIG       0.069700
     35 H6          -2.5560     3.1100     2.2090 hc         1 HIG       0.067200
     36 H6A         -2.0060     1.4560     2.4910 hc         1 HIG       0.067200
     37 H10         -5.1030     2.4990    -1.9800 hc         1 HIG       0.063200
     38 H10A        -4.0140     3.3860    -0.9380 hc         1 HIG       0.063200
     39 H12         -0.5410     0.6030    -1.7350 ha         1 HIG       0.141000
     40 H13         -0.2680     3.9130     2.0700 hc         1 HIG       0.055200
     41 H13A        -0.0390     2.6090     3.2230 hc         1 HIG       0.055200
     42 H16         -2.0820     2.8010    -2.4690 hc         1 HIG       0.040700
     43 H16A        -3.1830     1.8700    -3.4790 hc         1 HIG       0.040700
     44 H16B        -3.3690     3.6200    -3.3420 hc         1 HIG       0.040700
     45 H17          2.4410     2.1840     1.9070 ha         1 HIG       0.137000
     46 H18          1.8710     0.1480    -1.8270 ha         1 HIG       0.126000
     47 H19         -3.5750    -3.8280     1.0530 ha         1 HIG       0.139000
     48 H20         -5.3550    -2.6660    -1.8040 hc         1 HIG       0.049367
     49 H20A        -5.4300    -3.8580    -0.5020 hc         1 HIG       0.049367
     50 H20B        -6.3510    -2.3570    -0.3960 hc         1 HIG       0.049367
     51 H21         -1.2110    -2.2990     3.2880 hc         1 HIG       0.057367
     52 H21A        -1.8470    -3.8340     2.6850 hc         1 HIG       0.057367
     53 H21B        -0.4640    -3.0740     1.9000 hc         1 HIG       0.057367
     54 H25          4.3340     2.8810     0.0980 ha         1 HIG       0.142000
     55 H27          5.9520    -1.7540    -0.3900 ha         1 HIG       0.135000
     56 H28          6.7460     2.4360    -0.1080 ha         1 HIG       0.138000
     57 H31          7.5610     0.1120    -0.3890 ha         1 HIG       0.139000
     58 HN29         3.6620    -2.6810    -1.9050 hn         1 HIG       0.335700
@<TRIPOS>BOND
     1     1     2 1   
     2     1     3 1   
     3     1     4 1   
     4     2     5 1   
     5     2     6 1   
     6     2    34 1   
     7     3     7 ar  
     8     3     8 ar  
     9     4     9 2   
    10     4    10 1   
    11     5    11 ar  
    12     5    12 ar  
    13     6    13 1   
    14     6    35 1   
    15     6    36 1   
    16     7     9 1   
    17     7    14 ar  
    18     8    15 ar  
    19    10    16 1   
    20    10    37 1   
    21    10    38 1   
    22    11    13 1   
    23    11    17 ar  
    24    12    18 ar  
    25    12    39 1   
    26    13    40 1   
    27    13    41 1   
    28    14    19 ar  
    29    14    20 1   
    30    15    19 ar  
    31    15    21 1   
    32    16    42 1   
    33    16    43 1   
    34    16    44 1   
    35    17    22 ar  
    36    17    45 1   
    37    18    22 ar  
    38    18    46 1   
    39    19    47 1   
    40    20    48 1   
    41    20    49 1   
    42    20    50 1   
    43    21    51 1   
    44    21    52 1   
    45    21    53 1   
    46    22    23 1   
    47    23    24 ar  
    48    23    25 ar  
    49    24    26 1   
    50    24    27 ar  
    51    25    28 ar  
    52    25    54 1   
    53    26    29 1   
    54    26    30 2   
    55    27    31 ar  
    56    27    55 1   
    57    28    31 ar  
    58    28    56 1   
    59    29    32 1   
    60    29    58 1   
    61    30    33 1   
    62    31    57 1   
    63    32    33 2   
@<TRIPOS>SUBSTRUCTURE
     1 HIG         1 TEMP              0 ****  ****    0 ROOT
