@<TRIPOS>MOLECULE
HIG
   58    63     1     0     0
SMALL
No Charge or Current Charge


@<TRIPOS>ATOM
      1 N1          -2.8710     1.1090     0.0600 na         1 HIG      -0.285300
      2 C2          -1.8630     2.1060     0.4520 c5         1 HIG       0.142600
      3 C3          -2.9040    -0.2090     0.4300 ca         1 HIG       0.352500
      4 C4          -3.9160     1.3030    -0.8560 cc         1 HIG       0.422800
      5 C5          -0.4340     1.7100     0.1710 ca         1 HIG      -0.089300
      6 C6          -1.7690     2.4220     1.9960 c5         1 HIG      -0.091400
      7 C7          -3.9610    -0.7580    -0.2660 ca         1 HIG       0.017400
      8 N8          -2.1140    -0.9100     1.2700 nb         1 HIG      -0.670000
      9 N9          -4.6090     0.1740    -1.0710 nd         1 HIG      -0.571100
     10 C10         -4.2310     2.6060    -1.5480 c3         1 HIG      -0.095700
     11 C11          0.4280     2.1490     1.1550 ca         1 HIG      -0.070300
     12 C12          0.0430     0.9860    -0.9340 ca         1 HIG      -0.073000
     13 C13         -0.2890     2.9070     2.2410 c5         1 HIG      -0.029100
     14 C14         -4.2720    -2.1210    -0.1220 ca         1 HIG       0.021700
     15 C15         -2.3870    -2.2260     1.4170 ca         1 HIG       0.383300
     16 C16         -3.3220     2.8880    -2.7640 c3         1 HIG      -0.091100
     17 C17          1.8020     1.8720     1.0890 ca         1 HIG      -0.072000
     18 C18          1.4180     0.6960    -1.0130 ca         1 HIG      -0.099000
     19 C19         -3.4520    -2.8660     0.7480 ca         1 HIG      -0.192000
     20 C20         -5.4290    -2.7650    -0.8720 c3         1 HIG      -0.044800
     21 C21         -1.4830    -2.9980     2.3580 c3         1 HIG      -0.150400
     22 C22          2.3170     1.1200     0.0020 cp         1 HIG      -0.041000
     23 C23          3.7740     0.8090    -0.0860 cp         1 HIG       0.018000
     24 C24          4.2730    -0.5260    -0.1960 ca         1 HIG      -0.140500
     25 C25          4.6890     1.8890    -0.1040 ca         1 HIG      -0.105000
     26 C26          3.4230    -1.7250    -0.0860 cc         1 HIG       0.450000
     27 C27          5.6710    -0.7190    -0.3190 ca         1 HIG      -0.090000
     28 C28          6.0680     1.6760    -0.2340 ca         1 HIG      -0.089000
     29 N29          3.7080    -2.9540    -0.6120 na         1 HIG      -0.212700
     30 N30          2.2930    -1.8590     0.5810 nd         1 HIG      -0.360000
     31 C31          6.5570     0.3690    -0.3450 ca         1 HIG      -0.111000
     32 N32          2.7390    -3.8490    -0.2930 nc         1 HIG      -0.205800
     33 N33          1.8920    -3.1650     0.4270 nd         1 HIG      -0.050000
     34 H2          -2.0480     3.0470    -0.0810 h1         1 HIG       0.069700
     35 H6          -2.5100     3.1640     2.3130 hc         1 HIG       0.067200
     36 H6A         -1.9600     1.5210     2.5880 hc         1 HIG       0.067200
     37 H10         -5.2740     2.5930    -1.8860 hc         1 HIG       0.063200
     38 H10A        -4.1580     3.4360    -0.8350 hc         1 HIG       0.063200
     39 H12         -0.6370     0.6470    -1.7120 ha         1 HIG       0.123000
     40 H13         -0.1890     3.9900     2.1050 hc         1 HIG       0.055200
     41 H13A         0.0670     2.6600     3.2470 hc         1 HIG       0.055200
     42 H16         -2.2690     2.9460    -2.4640 hc         1 HIG       0.040700
     43 H16A        -3.4230     2.0930    -3.5120 hc         1 HIG       0.040700
     44 H16B        -3.5970     3.8390    -3.2350 hc         1 HIG       0.040700
     45 H17          2.4660     2.2180     1.8770 ha         1 HIG       0.119000
     46 H18          1.7950     0.1340    -1.8640 ha         1 HIG       0.108000
     47 H19         -3.6310    -3.9250     0.9050 ha         1 HIG       0.121000
     48 H20         -5.2850    -2.6860    -1.9560 hc         1 HIG       0.049367
     49 H20A        -5.5300    -3.8290    -0.6260 hc         1 HIG       0.049367
     50 H20B        -6.3780    -2.2750    -0.6220 hc         1 HIG       0.049367
     51 H21         -0.5110    -2.5060     2.4810 hc         1 HIG       0.057367
     52 H21A        -1.9430    -3.0880     3.3490 hc         1 HIG       0.057367
     53 H21B        -1.2960    -4.0090     1.9800 hc         1 HIG       0.057367
     54 H25          4.3160     2.9080    -0.0310 ha         1 HIG       0.124000
     55 H27          6.0880    -1.7220    -0.3750 ha         1 HIG       0.117000
     56 H28          6.7530     2.5200    -0.2510 ha         1 HIG       0.120000
     57 H31          7.6270     0.1960    -0.4390 ha         1 HIG       0.121000
     58 HN29         4.5090    -3.2000    -1.1780 hn         1 HIG       0.386000
@<TRIPOS>BOND
     1     1     2 1   
     2     1     3 1   
     3     1     4 1   
     4     2     5 1   
     5     2     6 1   
     6     2    34 1   
     7     3     7 ar  
     8     3     8 ar  
     9     4     9 2   
    10     4    10 1   
    11     5    11 ar  
    12     5    12 ar  
    13     6    13 1   
    14     6    35 1   
    15     6    36 1   
    16     7     9 1   
    17     7    14 ar  
    18     8    15 ar  
    19    10    16 1   
    20    10    37 1   
    21    10    38 1   
    22    11    13 1   
    23    11    17 ar  
    24    12    18 ar  
    25    12    39 1   
    26    13    40 1   
    27    13    41 1   
    28    14    19 ar  
    29    14    20 1   
    30    15    19 ar  
    31    15    21 1   
    32    16    42 1   
    33    16    43 1   
    34    16    44 1   
    35    17    22 ar  
    36    17    45 1   
    37    18    22 ar  
    38    18    46 1   
    39    19    47 1   
    40    20    48 1   
    41    20    49 1   
    42    20    50 1   
    43    21    51 1   
    44    21    52 1   
    45    21    53 1   
    46    22    23 1   
    47    23    24 ar  
    48    23    25 ar  
    49    24    26 1   
    50    24    27 ar  
    51    25    28 ar  
    52    25    54 1   
    53    26    29 1   
    54    26    30 2   
    55    27    31 ar  
    56    27    55 1   
    57    28    31 ar  
    58    28    56 1   
    59    29    32 1   
    60    29    58 1   
    61    30    33 1   
    62    31    57 1   
    63    32    33 2   
@<TRIPOS>SUBSTRUCTURE
     1 HIG         1 TEMP              0 ****  ****    0 ROOT
