@<TRIPOS>MOLECULE
HIH
   55    58     1     0     0
SMALL
bcc


@<TRIPOS>ATOM
      1 C1          24.4660     5.2870    56.6160 c3         1 HIH      -0.123100
      2 C10         15.7480     4.7210    61.9630 ca         1 HIH      -0.244800
      3 C11         14.4270     4.4960    62.3140 ca         1 HIH       0.399200
      4 C12         14.9740     4.1190    64.4780 ca         1 HIH       0.399200
      5 C13         16.3210     4.3230    64.2310 ca         1 HIH      -0.244800
      6 C14         19.0170     5.4760    63.5570 ca         1 HIH      -0.085000
      7 C15         20.3500     5.7010    63.3060 ca         1 HIH      -0.150000
      8 C16         20.8570     5.2850    62.0710 ca         1 HIH      -0.024200
      9 C17         23.2290     5.9520    62.3030 c3         1 HIH       0.048300
     10 C18         23.9630     4.9180    63.1470 c3         1 HIH      -0.092400
     11 C19         25.1310     5.5000    63.9410 c6         1 HIH      -0.057700
     12 C2          24.0410     4.0090    57.3060 c3         1 HIH       0.146400
     13 C20         25.9100     4.3820    64.6340 c6         1 HIH      -0.112400
     14 C21         27.0440     4.9390    65.4900 c6         1 HIH       0.147800
     15 C22         25.8690     7.0050    65.8250 c6         1 HIH       0.147800
     16 C23         24.6890     6.5310    64.9800 c6         1 HIH      -0.112400
     17 C3          23.3130     4.6730    59.4680 c          1 HIH       0.680300
     18 C4          22.1140     4.8030    60.3070 cc         1 HIH      -0.134300
     19 C5          20.8510     4.3640    60.0000 cd         1 HIH      -0.102200
     20 C6          20.0290     4.6590    61.1150 ca         1 HIH      -0.128800
     21 C7          18.6750     4.4490    61.3950 ca         1 HIH      -0.044000
     22 C8          18.1630     4.8540    62.6140 cp         1 HIH      -0.083000
     23 C9          16.7420     4.6340    62.9380 cp         1 HIH       0.018000
     24 N1          14.0300     4.2000    63.5470 nb         1 HIH      -0.665000
     25 N2          22.1170     5.3750    61.5650 na         1 HIH      -0.026400
     26 N3          26.6140     5.9320    66.4620 n7         1 HIH      -0.787200
     27 O1          22.9910     4.2310    58.2610 os         1 HIH      -0.413900
     28 O2          24.4430     4.9150    59.8240 o          1 HIH      -0.548000
     29 H1          25.1790     5.0440    55.8280 hc         1 HIH       0.049700
     30 H2          23.6170     5.7880    56.1530 hc         1 HIH       0.049700
     31 H3          24.9520     5.9820    57.3000 hc         1 HIH       0.049700
     32 H8          15.9880     4.9810    60.9400 ha         1 HIH       0.140500
     33 H9          13.6520     4.5670    61.5590 h4         1 HIH       0.017100
     34 H10         14.6440     3.8720    65.4820 h4         1 HIH       0.017100
     35 H11         17.0300     4.2170    65.0420 ha         1 HIH       0.140500
     36 H12         18.6080     5.8060    64.5030 ha         1 HIH       0.133000
     37 H13         20.9700     6.1840    64.0490 ha         1 HIH       0.138000
     38 H14         23.9090     6.4370    61.6080 h1         1 HIH       0.067700
     39 H15         22.8140     6.7420    62.9290 h1         1 HIH       0.067700
     40 H17         23.2580     4.4450    63.8390 hc         1 HIH       0.055200
     41 H16         24.3360     4.1270    62.4910 hc         1 HIH       0.055200
     42 H18         25.8110     5.9970    63.2360 hc         1 HIH       0.056700
     43 H5          23.6080     3.3150    56.5880 h1         1 HIH       0.060700
     44 H4          24.8870     3.5140    57.7830 h1         1 HIH       0.060700
     45 H19         25.2250     3.8100    65.2720 hc         1 HIH       0.042950
     46 H20         26.3090     3.6830    63.8930 hc         1 HIH       0.042950
     47 H22         27.5560     4.1300    66.0170 h1         1 HIH       0.052950
     48 H21         27.7900     5.4080    64.8380 h1         1 HIH       0.052950
     49 H24         26.5640     7.5620    65.1860 h1         1 HIH       0.052950
     50 H25         25.5280     7.7020    66.5950 h1         1 HIH       0.052950
     51 H26         24.2200     7.3960    64.5030 hc         1 HIH       0.042950
     52 H27         23.9310     6.0800    65.6320 hc         1 HIH       0.042950
     53 H6          20.5490     3.8770    59.0870 ha         1 HIH       0.169000
     54 H7          18.0480     3.9500    60.6660 ha         1 HIH       0.138000
     55 H28         26.0150     5.4810    67.1440 hn         1 HIH       0.345800
@<TRIPOS>BOND
     1     1    12 1   
     2     1    29 1   
     3     1    30 1   
     4     1    31 1   
     5     2     3 ar  
     6     2    23 ar  
     7     2    32 1   
     8     3    24 ar  
     9     3    33 1   
    10     4     5 ar  
    11     4    24 ar  
    12     4    34 1   
    13     5    23 ar  
    14     5    35 1   
    15     6     7 ar  
    16     6    22 ar  
    17     6    36 1   
    18     7     8 ar  
    19     7    37 1   
    20     8    20 ar  
    21     8    25 1   
    22     9    10 1   
    23     9    25 1   
    24     9    38 1   
    25     9    39 1   
    26    10    11 1   
    27    10    40 1   
    28    10    41 1   
    29    11    13 1   
    30    11    16 1   
    31    11    42 1   
    32    12    27 1   
    33    12    43 1   
    34    12    44 1   
    35    13    14 1   
    36    13    45 1   
    37    13    46 1   
    38    14    26 1   
    39    14    47 1   
    40    14    48 1   
    41    15    16 1   
    42    15    26 1   
    43    15    49 1   
    44    15    50 1   
    45    16    51 1   
    46    16    52 1   
    47    17    18 1   
    48    17    27 1   
    49    17    28 2   
    50    18    19 2   
    51    18    25 1   
    52    19    20 1   
    53    19    53 1   
    54    20    21 ar  
    55    21    22 ar  
    56    21    54 1   
    57    22    23 1   
    58    26    55 1   
@<TRIPOS>SUBSTRUCTURE
     1 HIH         1 TEMP              0 ****  ****    0 ROOT
