@<TRIPOS>MOLECULE
HIH
   55    58     1     0     0
SMALL
No Charge or Current Charge


@<TRIPOS>ATOM
      1 C1          24.2030     5.2890    56.4300 c3         1 HIH      -0.123100
      2 C10         15.7000     4.6690    61.8790 ca         1 HIH      -0.161500
      3 C11         14.3460     4.4480    62.1840 ca         1 HIH       0.333900
      4 C12         14.8290     4.1180    64.4220 ca         1 HIH       0.333900
      5 C13         16.2000     4.3290    64.2030 ca         1 HIH      -0.161500
      6 C14         18.9820     5.4480    63.5970 ca         1 HIH      -0.067000
      7 C15         20.3540     5.6700    63.3470 ca         1 HIH      -0.132000
      8 C16         20.8680     5.2820    62.1010 ca         1 HIH      -0.024200
      9 C17         23.2640     5.9710    62.3720 c3         1 HIH       0.077600
     10 C18         23.9910     4.9380    63.2610 c3         1 HIH      -0.092400
     11 C19         25.2100     5.4940    64.0570 c6         1 HIH      -0.057700
     12 C2          24.0000     3.9250    57.1210 c3         1 HIH       0.169600
     13 C20         25.9550     4.3530    64.8040 c6         1 HIH      -0.112400
     14 C21         27.1470     4.9000    65.6260 c6         1 HIH       0.147800
     15 C22         26.0360     7.0830    65.8920 c6         1 HIH       0.147800
     16 C23         24.8130     6.6040    65.0720 c6         1 HIH      -0.112400
     17 C3          23.3620     4.6660    59.3480 c          1 HIH       0.631300
     18 C4          22.2240     4.8240    60.2900 cc         1 HIH      -0.134300
     19 C5          20.9170     4.4160    60.0350 cd         1 HIH      -0.152200
     20 C6          20.0660     4.6990    61.1630 ca         1 HIH      -0.128800
     21 C7          18.7020     4.4640    61.3740 ca         1 HIH      -0.026000
     22 C8          18.1300     4.8440    62.6210 cp         1 HIH      -0.083000
     23 C9          16.6770     4.6140    62.9010 cp         1 HIH       0.018000
     24 N1          13.9080     4.1760    63.4330 nb         1 HIH      -0.665000
     25 N2          22.1620     5.3750    61.5930 na         1 HIH      -0.055700
     26 N3          26.6990     5.9470    66.5750 n7         1 HIH      -0.842400
     27 O1          23.0110     4.0700    58.1600 os         1 HIH      -0.437100
     28 O2          24.5040     5.0220    59.6080 o          1 HIH      -0.499000
     29 H1          24.8870     5.1820    55.5800 hc         1 HIH       0.049700
     30 H2          23.2480     5.6760    56.0530 hc         1 HIH       0.049700
     31 H3          24.6320     6.0270    57.1180 hc         1 HIH       0.049700
     32 H8          15.9770     4.8960    60.8550 ha         1 HIH       0.122500
     33 H9          13.5880     4.4930    61.4030 h4         1 HIH       0.017100
     34 H10         14.4550     3.8940    65.4200 h4         1 HIH       0.017100
     35 H11         16.8840     4.2540    65.0420 ha         1 HIH       0.122500
     36 H12         18.5720     5.7590    64.5550 ha         1 HIH       0.115000
     37 H13         20.9830     6.1290    64.1050 ha         1 HIH       0.120000
     38 H14         23.9820     6.4250    61.6790 h1         1 HIH       0.067700
     39 H15         22.8600     6.7810    62.9890 h1         1 HIH       0.067700
     40 H17         23.2630     4.5010    63.9560 hc         1 HIH       0.055200
     41 H16         24.3270     4.1170    62.6160 hc         1 HIH       0.055200
     42 H18         25.8980     5.9260    63.3160 hc         1 HIH       0.056700
     43 H5          23.6460     3.2060    56.3700 h1         1 HIH       0.060700
     44 H4          24.9520     3.5480    57.5180 h1         1 HIH       0.060700
     45 H19         25.2600     3.8260    65.4720 hc         1 HIH       0.042950
     46 H20         26.3210     3.6080    64.0850 hc         1 HIH       0.042950
     47 H22         27.6210     4.0750    66.1810 h1         1 HIH       0.052950
     48 H21         27.9040     5.3170    64.9440 h1         1 HIH       0.052950
     49 H24         26.7540     7.5810    65.2220 h1         1 HIH       0.052950
     50 H25         25.7120     7.8260    66.6370 h1         1 HIH       0.052950
     51 H26         24.3800     7.4660    64.5480 hc         1 HIH       0.042950
     52 H27         24.0370     6.2300    65.7540 hc         1 HIH       0.042950
     53 H6          20.5880     3.9410    59.1140 ha         1 HIH       0.219000
     54 H7          18.1060     3.9850    60.6020 ha         1 HIH       0.120000
     55 H28         26.0210     5.5240    67.2190 hn         1 HIH       0.401000
@<TRIPOS>BOND
     1     1    12 1   
     2     1    29 1   
     3     1    30 1   
     4     1    31 1   
     5     2     3 ar  
     6     2    23 ar  
     7     2    32 1   
     8     3    24 ar  
     9     3    33 1   
    10     4     5 ar  
    11     4    24 ar  
    12     4    34 1   
    13     5    23 ar  
    14     5    35 1   
    15     6     7 ar  
    16     6    22 ar  
    17     6    36 1   
    18     7     8 ar  
    19     7    37 1   
    20     8    20 ar  
    21     8    25 1   
    22     9    10 1   
    23     9    25 1   
    24     9    38 1   
    25     9    39 1   
    26    10    11 1   
    27    10    40 1   
    28    10    41 1   
    29    11    13 1   
    30    11    16 1   
    31    11    42 1   
    32    12    27 1   
    33    12    43 1   
    34    12    44 1   
    35    13    14 1   
    36    13    45 1   
    37    13    46 1   
    38    14    26 1   
    39    14    47 1   
    40    14    48 1   
    41    15    16 1   
    42    15    26 1   
    43    15    49 1   
    44    15    50 1   
    45    16    51 1   
    46    16    52 1   
    47    17    18 1   
    48    17    27 1   
    49    17    28 2   
    50    18    19 2   
    51    18    25 1   
    52    19    20 1   
    53    19    53 1   
    54    20    21 ar  
    55    21    22 ar  
    56    21    54 1   
    57    22    23 1   
    58    26    55 1   
@<TRIPOS>SUBSTRUCTURE
     1 HIH         1 TEMP              0 ****  ****    0 ROOT
