@<TRIPOS>MOLECULE
HIK
   50    51     1     0     0
SMALL
abcg2


@<TRIPOS>ATOM
      1 C14          8.3530    -0.2870    13.6870 c3         1 HIK       0.173600
      2 C13          8.8140     0.7380    12.6710 c3         1 HIK      -0.081400
      3 C12          8.5540     2.1740    13.0770 c3         1 HIK       0.151600
      4 C16          6.3020    -0.8200    14.7790 ca         1 HIK       0.589300
      5 C17          4.9010    -0.6760    14.8280 ca         1 HIK      -0.148300
      6 C10          9.0360     3.6570    14.8400 ca         1 HIK      -0.127900
      7 C01          5.8330     2.7670    15.9380 c3         1 HIK      -0.083100
      8 C03          8.1090     3.8160    15.8480 ca         1 HIK       0.185300
      9 C05          8.5820     6.0370    15.9430 ca         1 HIK       0.401900
     10 C08          9.7530     4.8060    14.4390 ca         1 HIK       0.394900
     11 C19          3.9030    -0.7110    12.5020 c3         1 HIK      -0.071400
     12 C20          3.0840    -1.9710    12.6940 c3         1 HIK       0.160600
     13 C22          4.2640    -1.3180    15.8730 ca         1 HIK      -0.048000
     14 C23          4.9900    -2.0610    16.8030 ca         1 HIK      -0.206000
     15 C24          6.3560    -2.1320    16.6400 ca         1 HIK       0.374900
     16 N04          7.8800     5.0110    16.4070 nb         1 HIK      -0.279000
     17 N06          8.3070     7.2640    16.4600 nv         1 HIK      -1.046900
     18 N07          9.5190     5.9890    14.9940 nb         1 HIK      -0.323000
     19 N09         10.6820     4.7340    13.4640 nv         1 HIK      -1.060900
     20 N25          7.0010    -1.5220    15.6440 nb         1 HIK      -0.761000
     21 O11          9.3050     2.4520    14.2580 os         1 HIK      -0.353100
     22 O15          6.9340    -0.1920    13.7830 os         1 HIK      -0.474300
     23 O21          1.8150    -1.6290    13.2110 oh         1 HIK      -0.665000
     24 H142         8.6380    -1.2940    13.3690 h1         1 HIK       0.055700
     25 H141         8.8170    -0.1090    14.6580 h1         1 HIK       0.055700
     26 H132         8.3260     0.5580    11.7090 hc         1 HIK       0.057700
     27 H131         9.8830     0.5900    12.5020 hc         1 HIK       0.057700
     28 H122         7.4880     2.3400    13.2590 h1         1 HIK       0.039200
     29 H121         8.8540     2.8490    12.2680 h1         1 HIK       0.039200
     30 H182         4.6740     1.0100    13.5300 hc         1 HIK       0.056700
     31 H181         3.1840     0.4030    14.2060 hc         1 HIK       0.056700
     32 H012         5.2540     1.9410    16.3510 hc         1 HIK       0.038033
     33 H011         5.3800     3.6990    16.2740 hc         1 HIK       0.038033
     34 H013         5.7440     2.7230    14.8520 hc         1 HIK       0.038033
     35 H021         7.3400     2.7030    17.4690 hc         1 HIK       0.062200
     36 H022         7.7150     1.7180    16.0700 hc         1 HIK       0.062200
     37 H192         3.4070    -0.0650    11.7710 hc         1 HIK       0.050700
     38 H191         4.8590    -0.9950    12.0570 hc         1 HIK       0.050700
     39 H202         2.9950    -2.4830    11.7270 h1         1 HIK       0.018200
     40 H201         3.6150    -2.6580    13.3650 h1         1 HIK       0.018200
     41 H221         3.1870    -1.2410    15.9610 ha         1 HIK       0.125000
     42 H231         4.5030    -2.5670    17.6250 ha         1 HIK       0.125000
     43 H241         6.9700    -2.6990    17.3300 h4         1 HIK       0.017100
     44 H062         7.8170     7.2920    17.3370 hn         1 HIK       0.483000
     45 H061         8.9940     7.9860    16.3250 hn         1 HIK       0.483000
     46 H092        11.2990     5.5210    13.3470 hn         1 HIK       0.487500
     47 H091        11.0630     3.8360    13.2180 hn         1 HIK       0.487500
     48 H211         1.3320    -2.4410    13.3850 ho         1 HIK       0.439000
     49 C02          7.2920     2.6740    16.3780 c3         1 HIK      -0.132700
     50 C18          4.1420     0.0920    13.7860 c3         1 HIK      -0.011100
@<TRIPOS>BOND
     1     1     2 1   
     2     1    22 1   
     3     1    24 1   
     4     1    25 1   
     5     2     3 1   
     6     2    26 1   
     7     2    27 1   
     8     3    21 1   
     9     3    28 1   
    10     3    29 1   
    11     4     5 ar  
    12     4    20 ar  
    13     4    22 1   
    14     5    13 ar  
    15     5    50 1   
    16     6     8 ar  
    17     6    10 ar  
    18     6    21 1   
    19     7    32 1   
    20     7    33 1   
    21     7    34 1   
    22     7    49 1   
    23     8    16 ar  
    24     8    49 1   
    25     9    16 ar  
    26     9    17 1   
    27     9    18 ar  
    28    10    18 ar  
    29    10    19 1   
    30    11    12 1   
    31    11    37 1   
    32    11    38 1   
    33    11    50 1   
    34    12    23 1   
    35    12    39 1   
    36    12    40 1   
    37    13    14 ar  
    38    13    41 1   
    39    14    15 ar  
    40    14    42 1   
    41    15    20 ar  
    42    15    43 1   
    43    17    44 1   
    44    17    45 1   
    45    19    46 1   
    46    19    47 1   
    47    23    48 1   
    48    30    50 1   
    49    31    50 1   
    50    35    49 1   
    51    36    49 1   
@<TRIPOS>SUBSTRUCTURE
     1 HIK         1 TEMP              0 ****  ****    0 ROOT
