@<TRIPOS>MOLECULE
HIK
   50    51     1     0     0
SMALL
No Charge or Current Charge


@<TRIPOS>ATOM
      1 C14          8.4040    -0.3430    13.9280 c3         1 HIK       0.173600
      2 C13          8.9330     0.5880    12.8180 c3         1 HIK      -0.081400
      3 C12          8.6000     2.0770    13.0420 c3         1 HIK       0.151600
      4 C16          6.2070    -0.9190    14.8660 ca         1 HIK       0.589300
      5 C17          4.8050    -0.7260    14.8470 ca         1 HIK      -0.148300
      6 C10          8.9880     3.7570    14.7770 ca         1 HIK      -0.127900
      7 C01          6.3170     2.3480    16.3940 c3         1 HIK      -0.083100
      8 C03          8.2910     3.9120    15.9980 ca         1 HIK       0.185300
      9 C05          8.5030     6.1790    15.7990 ca         1 HIK       0.401900
     10 C08          9.4250     4.9420    14.1410 ca         1 HIK       0.394900
     11 C19          3.9690    -0.5240    12.4270 c3         1 HIK      -0.071400
     12 C20          3.0910    -1.7950    12.4380 c3         1 HIK       0.160600
     13 C22          4.0240    -1.3750    15.8200 ca         1 HIK      -0.048000
     14 C23          4.6730    -2.1870    16.7610 ca         1 HIK      -0.206000
     15 C24          6.0670    -2.3250    16.7020 ca         1 HIK       0.374900
     16 N04          8.0450     5.1380    16.5060 nb         1 HIK      -0.279000
     17 N06          8.2580     7.4050    16.3150 nv         1 HIK      -1.046900
     18 N07          9.1850     6.1560    14.6490 nb         1 HIK      -0.323000
     19 N09         10.1620     4.9440    12.9970 nv         1 HIK      -1.060900
     20 N25          6.8270    -1.7060    15.7750 nb         1 HIK      -0.761000
     21 O11          9.2360     2.4950    14.2640 os         1 HIK      -0.353100
     22 O15          6.9660    -0.2710    13.9180 os         1 HIK      -0.474300
     23 O21          1.7410    -1.4670    12.7870 oh         1 HIK      -0.665000
     24 H142         8.7410    -1.3700    13.7350 h1         1 HIK       0.055700
     25 H141         8.8080    -0.0250    14.8980 h1         1 HIK       0.055700
     26 H132         8.5170     0.2680    11.8550 hc         1 HIK       0.057700
     27 H131        10.0210     0.4720    12.7440 hc         1 HIK       0.057700
     28 H122         7.5120     2.2070    13.1080 h1         1 HIK       0.039200
     29 H121         8.9610     2.6620    12.1870 h1         1 HIK       0.039200
     30 H182         4.7110     1.0860    13.6660 hc         1 HIK       0.056700
     31 H181         3.1460     0.4930    14.1590 hc         1 HIK       0.056700
     32 H012         5.9790     1.4680    16.9540 hc         1 HIK       0.038033
     33 H011         5.6280     3.1750    16.6020 hc         1 HIK       0.038033
     34 H013         6.2640     2.1180    15.3240 hc         1 HIK       0.038033
     35 H021         7.7800     2.9480    17.8690 hc         1 HIK       0.062200
     36 H022         8.4050     1.8520    16.6560 hc         1 HIK       0.062200
     37 H192         3.5460     0.1950    11.7140 hc         1 HIK       0.050700
     38 H191         4.9620    -0.7900    12.0430 hc         1 HIK       0.050700
     39 H202         3.1190    -2.2520    11.4400 h1         1 HIK       0.018200
     40 H201         3.5060    -2.5240    13.1470 h1         1 HIK       0.018200
     41 H221         2.9420    -1.2570    15.8430 ha         1 HIK       0.125000
     42 H231         4.1080    -2.7080    17.5280 ha         1 HIK       0.125000
     43 H241         6.5920    -2.9510    17.4220 h4         1 HIK       0.017100
     44 H062         7.9470     7.4690    17.2810 hn         1 HIK       0.483000
     45 H061         8.7680     8.2010    15.9400 hn         1 HIK       0.483000
     46 H092        10.6410     5.8040    12.7440 hn         1 HIK       0.487500
     47 H091        10.6180     4.0760    12.7310 hn         1 HIK       0.487500
     48 H211         1.2260    -2.3040    12.7530 ho         1 HIK       0.439000
     49 C02          7.7570     2.7250    16.7950 c3         1 HIK      -0.132700
     50 C18          4.1300     0.1660    13.8030 c3         1 HIK      -0.011100
@<TRIPOS>BOND
     1     1     2 1   
     2     1    22 1   
     3     1    24 1   
     4     1    25 1   
     5     2     3 1   
     6     2    26 1   
     7     2    27 1   
     8     3    21 1   
     9     3    28 1   
    10     3    29 1   
    11     4     5 ar  
    12     4    20 ar  
    13     4    22 1   
    14     5    13 ar  
    15     5    50 1   
    16     6     8 ar  
    17     6    10 ar  
    18     6    21 1   
    19     7    32 1   
    20     7    33 1   
    21     7    34 1   
    22     7    49 1   
    23     8    16 ar  
    24     8    49 1   
    25     9    16 ar  
    26     9    17 1   
    27     9    18 ar  
    28    10    18 ar  
    29    10    19 1   
    30    11    12 1   
    31    11    37 1   
    32    11    38 1   
    33    11    50 1   
    34    12    23 1   
    35    12    39 1   
    36    12    40 1   
    37    13    14 ar  
    38    13    41 1   
    39    14    15 ar  
    40    14    42 1   
    41    15    20 ar  
    42    15    43 1   
    43    17    44 1   
    44    17    45 1   
    45    19    46 1   
    46    19    47 1   
    47    23    48 1   
    48    30    50 1   
    49    31    50 1   
    50    35    49 1   
    51    36    49 1   
@<TRIPOS>SUBSTRUCTURE
     1 HIK         1 TEMP              0 ****  ****    0 ROOT
