@<TRIPOS>MOLECULE
HIL
   54    57     1     0     0
SMALL
bcc


@<TRIPOS>ATOM
      1 C8          -7.8440    10.6610     8.5660 ca         1 HIL      -0.102300
      2 C5         -10.2090    11.8270     7.6520 ca         1 HIL      -0.118000
      3 C6         -10.1660    10.4630     7.9180 ca         1 HIL      -0.127000
      4 N1          -5.7110     8.7770    11.0050 n          1 HIL      -0.499800
      5 C2          -6.6210    12.8390     8.3710 c6         1 HIL      -0.054100
      6 N3          -4.9400    -0.5730    15.4910 n8         1 HIL      -0.890700
      7 C4          -9.0670    12.5910     7.8180 ca         1 HIL      -0.126000
      8 O3          -6.8030     6.8320    11.4220 o          1 HIL      -0.637100
      9 C11         -5.7850     7.5090    11.5170 c          1 HIL       0.793100
     10 C10         -6.8910     9.4230    10.4980 c6         1 HIL       0.093000
     11 C9          -6.6090     9.9730     9.1080 c6         1 HIL       0.153000
     12 C7          -8.9890     9.8890     8.3660 ca         1 HIL      -0.120000
     13 C3          -7.8770    12.0220     8.2700 ca         1 HIL      -0.062300
     14 C1          -5.4150    11.9370     8.1960 c6         1 HIL       0.096000
     15 N           -5.4660    10.8770     9.1850 n          1 HIL      -0.468800
     16 C20         -4.5440     9.6140    11.0980 c6         1 HIL       0.016000
     17 C           -4.5020    10.7730    10.1170 c          1 HIL       0.706500
     18 O           -3.5620    11.5510    10.2060 o          1 HIL      -0.643500
     19 N2          -4.6540     7.0280    12.1030 ns         1 HIL      -0.575900
     20 C12         -4.6710     5.7560    12.7860 c3         1 HIL       0.108000
     21 C13         -5.2610     5.8470    14.2000 c3         1 HIL      -0.075100
     22 C14         -5.3690     4.4930    14.8330 ca         1 HIL      -0.022300
     23 C19         -6.5660     3.7840    14.7800 ca         1 HIL      -0.146500
     24 C18         -6.6730     2.5180    15.3350 ca         1 HIL      -0.026000
     25 C17         -5.5620     1.9540    15.9410 ca         1 HIL      -0.272500
     26 S           -5.6770     0.3420    16.6580 sy         1 HIL       1.266200
     27 O2          -4.8120     0.2620    17.8250 o          1 HIL      -0.614800
     28 O1          -7.0900     0.0260    16.8200 o          1 HIL      -0.614800
     29 C16         -4.3530     2.6350    16.0030 ca         1 HIL      -0.026000
     30 C15         -4.2660     3.9010    15.4500 ca         1 HIL      -0.146500
     31 H1         -11.1230    12.2860     7.2980 ha         1 HIL       0.134000
     32 H2         -11.0450     9.8480     7.7710 ha         1 HIL       0.136000
     33 H3          -6.6190    13.6170     7.6050 hc         1 HIL       0.062200
     34 H4          -6.5600    13.3500     9.3370 hc         1 HIL       0.062200
     35 H5          -4.6540    -1.4780    15.8540 hn         1 HIL       0.416800
     36 H6          -5.5190    -0.6930    14.6650 hn         1 HIL       0.416800
     37 H7          -9.0870    13.6490     7.5810 ha         1 HIL       0.132000
     38 H8          -7.2030    10.2450    11.1550 h1         1 HIL       0.074200
     39 H9          -7.7020     8.7040    10.4560 h1         1 HIL       0.074200
     40 H10         -6.3620     9.1320     8.4470 h1         1 HIL       0.071700
     41 H11         -8.9590     8.8230     8.5570 ha         1 HIL       0.137000
     42 H12         -5.4190    11.4930     7.1970 h1         1 HIL       0.066700
     43 H13         -4.4870    12.4890     8.3090 h1         1 HIL       0.066700
     44 H14         -3.6410     9.0370    10.8830 h1         1 HIL       0.068200
     45 H15         -4.4210    10.0450    12.0990 h1         1 HIL       0.068200
     46 H16         -3.9210     7.6610    12.3780 hn         1 HIL       0.308500
     47 H17         -5.2360     5.0390    12.1910 h1         1 HIL       0.064700
     48 H18         -3.6460     5.3890    12.8360 h1         1 HIL       0.064700
     49 H19         -4.6290     6.4990    14.8080 hc         1 HIL       0.059700
     50 H20         -6.2480     6.3080    14.1440 hc         1 HIL       0.059700
     51 H21         -7.4310     4.2310    14.3060 ha         1 HIL       0.139500
     52 H22         -7.6150     1.9880    15.2930 ha         1 HIL       0.155500
     53 H23         -3.4880     2.1930    16.4790 ha         1 HIL       0.155500
     54 H24         -3.3290     4.4410    15.5040 ha         1 HIL       0.139500
@<TRIPOS>BOND
     1     1    11 1   
     2     1    12 ar  
     3     1    13 ar  
     4     2     3 ar  
     5     2     7 ar  
     6     2    31 1   
     7     3    12 ar  
     8     3    32 1   
     9     4     9 1   
    10     4    10 1   
    11     4    16 1   
    12     5    13 1   
    13     5    14 1   
    14     5    33 1   
    15     5    34 1   
    16     6    26 1   
    17     6    35 1   
    18     6    36 1   
    19     7    13 ar  
    20     7    37 1   
    21     8     9 2   
    22     9    19 1   
    23    10    11 1   
    24    10    38 1   
    25    10    39 1   
    26    11    15 1   
    27    11    40 1   
    28    12    41 1   
    29    14    15 1   
    30    14    42 1   
    31    14    43 1   
    32    15    17 1   
    33    16    17 1   
    34    16    44 1   
    35    16    45 1   
    36    17    18 2   
    37    19    20 1   
    38    19    46 1   
    39    20    21 1   
    40    20    47 1   
    41    20    48 1   
    42    21    22 1   
    43    21    49 1   
    44    21    50 1   
    45    22    23 ar  
    46    22    30 ar  
    47    23    24 ar  
    48    23    51 1   
    49    24    25 ar  
    50    24    52 1   
    51    25    26 1   
    52    25    29 ar  
    53    26    27 2   
    54    26    28 2   
    55    29    30 ar  
    56    29    53 1   
    57    30    54 1   
@<TRIPOS>SUBSTRUCTURE
     1 HIL         1 TEMP              0 ****  ****    0 ROOT
