@<TRIPOS>MOLECULE
HIL
   54    57     1     0     0
SMALL
No Charge or Current Charge


@<TRIPOS>ATOM
      1 C8          -7.8370    10.9440     8.3290 ca         1 HIL      -0.102300
      2 C5         -10.1230    12.2540     7.3120 ca         1 HIL      -0.100000
      3 C6          -9.9450    10.8800     7.0920 ca         1 HIL      -0.109000
      4 N1          -5.8570     8.3520    10.4820 n          1 HIL      -0.432800
      5 C2          -6.9630    13.1150     9.2980 c6         1 HIL      -0.054100
      6 N3          -4.7730    -0.5960    16.3410 n8         1 HIL      -1.001100
      7 C4          -9.1580    12.9780     8.0310 ca         1 HIL      -0.108000
      8 O3          -7.2270     6.7930    11.4720 o          1 HIL      -0.637100
      9 C11         -6.0970     7.1900    11.2360 c          1 HIL       0.659100
     10 C10         -7.0080     9.1390     9.9330 c6         1 HIL       0.093000
     11 C9          -6.6040    10.2030     8.8830 c6         1 HIL       0.153000
     12 C7          -8.8070    10.2280     7.5970 ca         1 HIL      -0.102000
     13 C3          -8.0150    12.3280     8.5330 ca         1 HIL      -0.062300
     14 C1          -5.5630    12.4980     9.1330 c6         1 HIL       0.096000
     15 N           -5.5390    11.0530     9.4710 n          1 HIL      -0.401800
     16 C20         -4.4720     8.9200    10.2690 c6         1 HIL       0.016000
     17 C           -4.3540    10.4110     9.8550 c          1 HIL       0.564000
     18 O           -3.2910    11.0140     9.9430 o          1 HIL      -0.568000
     19 N2          -4.9820     6.5230    11.6790 ns         1 HIL      -0.508900
     20 C12         -5.0030     5.3130    12.5050 c3         1 HIL       0.108000
     21 C13         -5.2890     5.6230    13.9880 c3         1 HIL      -0.075100
     22 C14         -5.2880     4.3630    14.8410 ca         1 HIL      -0.022300
     23 C19         -6.4600     3.5950    14.9710 ca         1 HIL      -0.128500
     24 C18         -6.4640     2.4270    15.7540 ca         1 HIL      -0.008000
     25 C17         -5.2870     2.0170    16.4150 ca         1 HIL      -0.272500
     26 S           -5.2800     0.5270    17.4160 sy         1 HIL       1.124600
     27 O2          -4.2250     0.5910    18.4280 o          1 HIL      -0.544000
     28 O1          -6.6500     0.1220    17.7220 o          1 HIL      -0.544000
     29 C16         -4.1110     2.7840    16.2850 ca         1 HIL      -0.008000
     30 C15         -4.1150     3.9510    15.5000 ca         1 HIL      -0.128500
     31 H1         -11.0050    12.7590     6.9230 ha         1 HIL       0.116000
     32 H2         -10.6890    10.3180     6.5300 ha         1 HIL       0.118000
     33 H3          -6.9430    14.1600     8.9620 hc         1 HIL       0.062200
     34 H4          -7.2300    13.1340    10.3640 hc         1 HIL       0.062200
     35 H5          -5.4990    -1.3010    16.4410 hn         1 HIL       0.472000
     36 H6          -4.9840    -0.1530    15.4500 hn         1 HIL       0.472000
     37 H7          -9.2980    14.0440     8.1950 ha         1 HIL       0.114000
     38 H8          -7.5220     9.6400    10.7650 h1         1 HIL       0.074200
     39 H9          -7.7290     8.4450     9.4790 h1         1 HIL       0.074200
     40 H10         -6.1570     9.6670     8.0330 h1         1 HIL       0.071700
     41 H11         -8.6820     9.1630     7.4160 ha         1 HIL       0.119000
     42 H12         -5.2310    12.6240     8.0920 h1         1 HIL       0.066700
     43 H13         -4.8550    13.0460     9.7720 h1         1 HIL       0.066700
     44 H14         -3.9680     8.3400     9.4840 h1         1 HIL       0.068200
     45 H15         -3.8880     8.8280    11.1940 h1         1 HIL       0.068200
     46 H16         -4.0870     6.9100    11.4150 hn         1 HIL       0.308500
     47 H17         -5.7680     4.6260    12.1180 h1         1 HIL       0.064700
     48 H18         -4.0290     4.8120    12.4200 h1         1 HIL       0.064700
     49 H19         -4.5370     6.3310    14.3560 hc         1 HIL       0.059700
     50 H20         -6.2570     6.1310    14.0720 hc         1 HIL       0.059700
     51 H21         -7.3710     3.9020    14.4640 ha         1 HIL       0.121500
     52 H22         -7.3830     1.8490    15.8420 ha         1 HIL       0.137500
     53 H23         -3.1930     2.4810    16.7870 ha         1 HIL       0.137500
     54 H24         -3.2020     4.5330    15.4050 ha         1 HIL       0.121500
@<TRIPOS>BOND
     1     1    11 1   
     2     1    12 ar  
     3     1    13 ar  
     4     2     3 ar  
     5     2     7 ar  
     6     2    31 1   
     7     3    12 ar  
     8     3    32 1   
     9     4     9 1   
    10     4    10 1   
    11     4    16 1   
    12     5    13 1   
    13     5    14 1   
    14     5    33 1   
    15     5    34 1   
    16     6    26 1   
    17     6    35 1   
    18     6    36 1   
    19     7    13 ar  
    20     7    37 1   
    21     8     9 2   
    22     9    19 1   
    23    10    11 1   
    24    10    38 1   
    25    10    39 1   
    26    11    15 1   
    27    11    40 1   
    28    12    41 1   
    29    14    15 1   
    30    14    42 1   
    31    14    43 1   
    32    15    17 1   
    33    16    17 1   
    34    16    44 1   
    35    16    45 1   
    36    17    18 2   
    37    19    20 1   
    38    19    46 1   
    39    20    21 1   
    40    20    47 1   
    41    20    48 1   
    42    21    22 1   
    43    21    49 1   
    44    21    50 1   
    45    22    23 ar  
    46    22    30 ar  
    47    23    24 ar  
    48    23    51 1   
    49    24    25 ar  
    50    24    52 1   
    51    25    26 1   
    52    25    29 ar  
    53    26    27 2   
    54    26    28 2   
    55    29    30 ar  
    56    29    53 1   
    57    30    54 1   
@<TRIPOS>SUBSTRUCTURE
     1 HIL         1 TEMP              0 ****  ****    0 ROOT
