@<TRIPOS>MOLECULE
HIN
   43    43     1     0     0
SMALL
bcc


@<TRIPOS>ATOM
      1 C1           4.2590    -4.1790     1.6180 c3         1 HIN       0.063000
      2 C2           3.1070    -3.7770     0.7250 c3         1 HIN      -0.196400
      3 C3           2.4300    -2.5120     1.1800 c          1 HIN       0.563100
      4 C4           1.3200    -1.9880     0.2790 c3         1 HIN       0.007700
      5 N5           0.4540    -1.1050     1.0080 ns         1 HIN      -0.554900
      6 C6          -0.8870    -1.1850     0.9800 c          1 HIN       0.655100
      7 C7          -1.6070    -0.0920     1.7700 c3         1 HIN       0.034700
      8 N8          -2.7070     0.4170     0.9890 ns         1 HIN      -0.563900
      9 C9          -2.6840     1.5930     0.3310 c          1 HIN       0.675100
     10 C10         -3.8800     1.8440    -0.5520 c3         1 HIN      -0.180100
     11 C11         -2.0960    -0.6580     3.0980 c3         1 HIN      -0.101100
     12 C12          1.9380    -1.2740    -0.9450 c3         1 HIN      -0.042100
     13 C8           0.8740    -0.7630    -1.8720 ca         1 HIN      -0.089300
     14 C13          0.3640    -1.5780    -2.8790 ca         1 HIN      -0.114500
     15 C14         -0.6500    -1.1270    -3.7130 ca         1 HIN      -0.125500
     16 C15         -1.1720     0.1490    -3.5470 ca         1 HIN      -0.128000
     17 C5          -0.6720     0.9690    -2.5440 ca         1 HIN      -0.125500
     18 C16          0.3440     0.5150    -1.7150 ca         1 HIN      -0.114500
     19 O3           2.7470    -1.9310     2.1900 o          1 HIN      -0.513100
     20 O6          -1.5080    -2.0690     0.4150 o          1 HIN      -0.601100
     21 O9          -1.7640     2.3930     0.4200 o          1 HIN      -0.614100
     22 CL           5.0060    -5.6940     1.0000 cl         1 HIN      -0.208400
     23 H11          3.9350    -4.3800     2.6360 h1         1 HIN       0.077200
     24 H12          5.0420    -3.4250     1.6370 h1         1 HIN       0.077200
     25 H21          2.3490    -4.5670     0.6930 hc         1 HIN       0.082200
     26 H22          3.4470    -3.6530    -0.3070 hc         1 HIN       0.082200
     27 H4           0.7260    -2.8340    -0.0740 h1         1 HIN       0.103700
     28 HN5          0.8800    -0.3160     1.4690 hn         1 HIN       0.329500
     29 H7          -0.9300     0.7400     1.9600 h1         1 HIN       0.088700
     30 HN8         -3.4790    -0.2100     0.8260 hn         1 HIN       0.325500
     31 H101        -4.1120     2.9070    -0.5760 hc         1 HIN       0.062700
     32 H102        -3.6370     1.5340    -1.5700 hc         1 HIN       0.062700
     33 H103        -4.7660     1.2950    -0.2390 hc         1 HIN       0.062700
     34 H111        -2.8200    -1.4590     2.9410 hc         1 HIN       0.051033
     35 H112        -1.2650    -1.0610     3.6770 hc         1 HIN       0.051033
     36 H113        -2.5720     0.1260     3.6870 hc         1 HIN       0.051033
     37 H121         2.5640    -0.4500    -0.5930 hc         1 HIN       0.055200
     38 H122         2.5940    -1.9680    -1.4760 hc         1 HIN       0.055200
     39 H2           0.7640    -2.5760    -3.0160 ha         1 HIN       0.130500
     40 H3          -1.0320    -1.7730    -4.4940 ha         1 HIN       0.135000
     41 H8          -1.9620     0.5040    -4.1970 ha         1 HIN       0.128000
     42 H5          -1.0720     1.9650    -2.4050 ha         1 HIN       0.135000
     43 H6           0.7280     1.1640    -0.9370 ha         1 HIN       0.130500
@<TRIPOS>BOND
     1     1     2 1   
     2     1    22 1   
     3     1    23 1   
     4     1    24 1   
     5     2     3 1   
     6     2    25 1   
     7     2    26 1   
     8     3     4 1   
     9     3    19 2   
    10     4     5 1   
    11     4    12 1   
    12     4    27 1   
    13     5     6 1   
    14     5    28 1   
    15     6     7 1   
    16     6    20 2   
    17     7     8 1   
    18     7    11 1   
    19     7    29 1   
    20     8     9 1   
    21     8    30 1   
    22     9    10 1   
    23     9    21 2   
    24    10    31 1   
    25    10    32 1   
    26    10    33 1   
    27    11    34 1   
    28    11    35 1   
    29    11    36 1   
    30    12    13 1   
    31    12    37 1   
    32    12    38 1   
    33    13    14 ar  
    34    13    18 ar  
    35    14    15 ar  
    36    14    39 1   
    37    15    16 ar  
    38    15    40 1   
    39    16    17 ar  
    40    16    41 1   
    41    17    18 ar  
    42    17    42 1   
    43    18    43 1   
@<TRIPOS>SUBSTRUCTURE
     1 HIN         1 TEMP              0 ****  ****    0 ROOT
