@<TRIPOS>MOLECULE
HIN
   43    43     1     0     0
SMALL
No Charge or Current Charge


@<TRIPOS>ATOM
      1 C1           4.3650    -3.9580     0.9330 c3         1 HIN       0.139600
      2 C2           2.8590    -4.2120     1.1330 c3         1 HIN      -0.196400
      3 C3           2.1340    -2.9180     1.5130 c          1 HIN       0.563100
      4 C4           1.2450    -2.2590     0.4190 c3         1 HIN       0.007700
      5 N5           0.3400    -1.2450     1.0160 ns         1 HIN      -0.487900
      6 C6          -0.9850    -1.0620     0.6680 c          1 HIN       0.588100
      7 C7          -1.6790     0.1590     1.3380 c3         1 HIN       0.034700
      8 N8          -2.9860     0.4250     0.6980 ns         1 HIN      -0.496900
      9 C9          -3.6620     1.6220     0.7380 c          1 HIN       0.608100
     10 C10         -4.9890     1.6300    -0.0090 c3         1 HIN      -0.180100
     11 C11         -1.8440    -0.0390     2.8640 c3         1 HIN      -0.101100
     12 C12          2.0910    -1.6560    -0.7340 c3         1 HIN      -0.042100
     13 C8           1.2530    -0.9230    -1.7770 ca         1 HIN      -0.089300
     14 C13          0.5910    -1.6460    -2.7890 ca         1 HIN      -0.096500
     15 C14         -0.1950    -0.9740    -3.7420 ca         1 HIN      -0.107500
     16 C15         -0.3250     0.4240    -3.6880 ca         1 HIN      -0.110000
     17 C5           0.3330     1.1500    -2.6810 ca         1 HIN      -0.107500
     18 C16          1.1210     0.4790    -1.7300 ca         1 HIN      -0.096500
     19 O3           2.2360    -2.4530     2.6430 o          1 HIN      -0.513100
     20 O6          -1.5620    -1.8130    -0.1090 o          1 HIN      -0.601100
     21 O9          -3.2290     2.6040     1.3210 o          1 HIN      -0.614100
     22 Cl           5.2160    -5.4960     0.4740 cl         1 HIN      -0.285000
     23 H11          4.8240    -3.5870     1.8600 h1         1 HIN       0.077200
     24 H12          4.5410    -3.2300     0.1310 h1         1 HIN       0.077200
     25 H21          2.7340    -4.9400     1.9420 hc         1 HIN       0.082200
     26 H22          2.4490    -4.6120     0.1980 hc         1 HIN       0.082200
     27 H4           0.6310    -3.0680     0.0000 h1         1 HIN       0.103700
     28 HN5          0.7260    -0.5990     1.6960 hn         1 HIN       0.329500
     29 H7          -1.0250     1.0240     1.1640 h1         1 HIN       0.088700
     30 HN8         -3.4150    -0.3240     0.1640 hn         1 HIN       0.325500
     31 H101        -5.4960     2.6000     0.0430 hc         1 HIN       0.062700
     32 H102        -4.8170     1.3180    -1.0450 hc         1 HIN       0.062700
     33 H103        -5.6200     0.8220     0.3770 hc         1 HIN       0.062700
     34 H111        -2.4780    -0.9090     3.0740 hc         1 HIN       0.051033
     35 H112        -0.8730    -0.1980     3.3470 hc         1 HIN       0.051033
     36 H113        -2.3070     0.8420     3.3240 hc         1 HIN       0.051033
     37 H121         2.8350    -0.9710    -0.3080 hc         1 HIN       0.055200
     38 H122         2.6620    -2.4550    -1.2220 hc         1 HIN       0.055200
     39 H2           0.6810    -2.7290    -2.8340 ha         1 HIN       0.112500
     40 H3          -0.7050    -1.5380    -4.5200 ha         1 HIN       0.117000
     41 H8          -0.9340     0.9430    -4.4240 ha         1 HIN       0.110000
     42 H5           0.2330     2.2330    -2.6380 ha         1 HIN       0.117000
     43 H6           1.6230     1.0500    -0.9520 ha         1 HIN       0.112500
@<TRIPOS>BOND
     1     1     2 1   
     2     1    22 1   
     3     1    23 1   
     4     1    24 1   
     5     2     3 1   
     6     2    25 1   
     7     2    26 1   
     8     3     4 1   
     9     3    19 2   
    10     4     5 1   
    11     4    12 1   
    12     4    27 1   
    13     5     6 1   
    14     5    28 1   
    15     6     7 1   
    16     6    20 2   
    17     7     8 1   
    18     7    11 1   
    19     7    29 1   
    20     8     9 1   
    21     8    30 1   
    22     9    10 1   
    23     9    21 2   
    24    10    31 1   
    25    10    32 1   
    26    10    33 1   
    27    11    34 1   
    28    11    35 1   
    29    11    36 1   
    30    12    13 1   
    31    12    37 1   
    32    12    38 1   
    33    13    14 ar  
    34    13    18 ar  
    35    14    15 ar  
    36    14    39 1   
    37    15    16 ar  
    38    15    40 1   
    39    16    17 ar  
    40    16    41 1   
    41    17    18 ar  
    42    17    42 1   
    43    18    43 1   
@<TRIPOS>SUBSTRUCTURE
     1 HIN         1 TEMP              0 ****  ****    0 ROOT
