@<TRIPOS>MOLECULE
HIO
   18    17     1     0     0
SMALL
bcc


@<TRIPOS>ATOM
      1 C1           0.0460     0.0740    -1.9300 c          1 HIO       0.877600
      2 O11         -1.1950     0.0550    -2.1700 o          1 HIO      -0.771800
      3 O12          0.9550     0.1020    -2.7500 o          1 HIO      -0.771800
      4 C2           0.4830     0.0550    -0.4340 c          1 HIO       0.511100
      5 O2           1.6770     0.0520    -0.1460 o          1 HIO      -0.645100
      6 N3          -0.4740     0.0480     0.5000 n          1 HIO      -0.334300
      7 O3          -1.8170     0.0040     0.1860 oh         1 HIO      -0.527100
      8 C4          -0.2370    -0.0140     1.9410 c3         1 HIO       0.128700
      9 C41          0.3650    -1.3490     2.3650 c3         1 HIO      -0.097100
     10 C42          0.5560     1.1770     2.4640 c3         1 HIO      -0.097100
     11 HO3         -1.8000     0.0170    -0.8340 ho         1 HIO       0.489000
     12 H4          -1.2370     0.0520     2.3700 h1         1 HIO       0.045700
     13 H411         0.3920    -1.4110     3.4530 hc         1 HIO       0.032033
     14 H412        -0.2360    -2.1830     2.0000 hc         1 HIO       0.032033
     15 H413         1.3820    -1.4690     1.9960 hc         1 HIO       0.032033
     16 H421         1.6020     1.1370     2.1680 hc         1 HIO       0.032033
     17 H422         0.1310     2.1170     2.1120 hc         1 HIO       0.032033
     18 H423         0.5140     1.1810     3.5540 hc         1 HIO       0.032033
@<TRIPOS>BOND
     1     1     2 1   
     2     1     3 1   
     3     1     4 1   
     4     4     5 2   
     5     4     6 1   
     6     6     7 1   
     7     6     8 1   
     8     7    11 1   
     9     8     9 1   
    10     8    10 1   
    11     8    12 1   
    12     9    13 1   
    13     9    14 1   
    14     9    15 1   
    15    10    16 1   
    16    10    17 1   
    17    10    18 1   
@<TRIPOS>SUBSTRUCTURE
     1 HIO         1 TEMP              0 ****  ****    0 ROOT
