@<TRIPOS>MOLECULE
HIO
   18    17     1     0     0
SMALL
No Charge or Current Charge


@<TRIPOS>ATOM
      1 C1           0.1850     0.1590    -2.0940 c          1 HIO       0.667000
      2 O11         -0.4040    -0.7770    -2.6330 o          1 HIO      -0.666500
      3 O12          0.5250     1.1790    -2.6920 o          1 HIO      -0.666500
      4 C2           0.5980     0.0080    -0.5300 c          1 HIO       0.444100
      5 O2           1.7690    -0.2040    -0.1960 o          1 HIO      -0.645100
      6 N3          -0.4410     0.1250     0.4500 n          1 HIO      -0.267300
      7 O3          -1.7970     0.4070     0.0360 oh         1 HIO      -0.566100
      8 C4          -0.2250     0.0290     1.9190 c3         1 HIO       0.128700
      9 C41          0.2120    -1.3760     2.3860 c3         1 HIO      -0.097100
     10 C42          0.6320     1.1790     2.4920 c3         1 HIO      -0.097100
     11 HO3         -2.2220    -0.4750    -0.1080 ho         1 HIO       0.528000
     12 H4          -1.2150     0.1740     2.3730 h1         1 HIO       0.045700
     13 H411         0.2090    -1.4340     3.4810 hc         1 HIO       0.032033
     14 H412        -0.4750    -2.1410     2.0050 hc         1 HIO       0.032033
     15 H413         1.2230    -1.6150     2.0370 hc         1 HIO       0.032033
     16 H421         1.6710     1.1080     2.1530 hc         1 HIO       0.032033
     17 H422         0.2310     2.1500     2.1780 hc         1 HIO       0.032033
     18 H423         0.6300     1.1480     3.5880 hc         1 HIO       0.032033
@<TRIPOS>BOND
     1     1     2 1   
     2     1     3 1   
     3     1     4 1   
     4     4     5 2   
     5     4     6 1   
     6     6     7 1   
     7     6     8 1   
     8     7    11 1   
     9     8     9 1   
    10     8    10 1   
    11     8    12 1   
    12     9    13 1   
    13     9    14 1   
    14     9    15 1   
    15    10    16 1   
    16    10    17 1   
    17    10    18 1   
@<TRIPOS>SUBSTRUCTURE
     1 HIO         1 TEMP              0 ****  ****    0 ROOT
