@<TRIPOS>MOLECULE
HIP
   23    23     1     0     0
SMALL
No Charge or Current Charge


@<TRIPOS>ATOM
      1 N            5.6790     7.4080     3.8990 n8         1 HIP      -0.901800
      2 CA           6.5930     6.5160     4.7170 c3         1 HIP       0.021500
      3 CB           7.3250     7.3450     5.8100 c3         1 HIP      -0.042100
      4 CG           6.4650     7.9490     6.9040 cc         1 HIP      -0.024600
      5 CD2          5.1080     7.7870     7.1450 cd         1 HIP      -0.221300
      6 NE2          4.8100     8.5430     8.2560 na         1 HIP      -0.194100
      7 CE1          5.9240     9.1790     8.7310 cc         1 HIP      -0.085600
      8 ND1          6.9620     8.8130     7.8940 na         1 HIP       0.155100
      9 P            8.7290     9.4080     8.1050 p5         1 HIP       1.046000
     10 O1P          8.8160    10.2580     9.3290 o          1 HIP      -0.860500
     11 O2P          9.1220    10.2030     6.9030 o          1 HIP      -0.860500
     12 O3P          9.6320     8.2270     8.2350 o          1 HIP      -0.860500
     13 C            6.0160     5.1480     5.3040 c          1 HIP       0.929600
     14 O            4.8010     4.9690     5.3440 o          1 HIP      -0.850300
     15 OXT          6.8110     4.2700     5.6230 o          1 HIP      -0.850300
     16 H            4.8700     7.6700     4.4720 hn         1 HIP       0.327300
     17 H2           6.1530     8.2940     3.6970 hn         1 HIP       0.327300
     18 HA           7.3770     6.1960     4.0180 h1         1 HIP       0.046700
     19 HB2          7.8850     8.1460     5.3130 hc         1 HIP       0.092200
     20 HB3          8.0850     6.7030     6.2730 hc         1 HIP       0.092200
     21 HD2          4.3590     7.2020     6.6200 h4         1 HIP       0.211000
     22 HE2          3.8840     8.6180     8.6680 hn         1 HIP       0.280700
     23 HE1          5.9970     9.8380     9.5900 h5         1 HIP       0.223000
@<TRIPOS>BOND
     1     1     2 1   
     2     1    16 1   
     3     1    17 1   
     4     2     3 1   
     5     2    13 1   
     6     2    18 1   
     7     3     4 1   
     8     3    19 1   
     9     3    20 1   
    10     4     5 2   
    11     4     8 1   
    12     5     6 1   
    13     5    21 1   
    14     6     7 2   
    15     6    22 1   
    16     7     8 1   
    17     7    23 1   
    18     8     9 1   
    19     9    10 1   
    20     9    11 1   
    21     9    12 1   
    22    13    14 1   
    23    13    15 1   
@<TRIPOS>SUBSTRUCTURE
     1 HIP         1 TEMP              0 ****  ****    0 ROOT
