@<TRIPOS>MOLECULE
HIP
   23    23     1     0     0
SMALL
bcc


@<TRIPOS>ATOM
      1 N            5.7820     7.4310     3.9440 n8         1 HIP      -0.901800
      2 CA           6.6470     6.5660     4.7280 c3         1 HIP       0.021500
      3 CB           7.3770     7.2660     5.8860 c3         1 HIP      -0.042100
      4 CG           6.5060     7.8800     6.9290 cc         1 HIP      -0.024600
      5 CD2          5.1790     7.7140     7.1960 cd         1 HIP      -0.221300
      6 NE2          4.8950     8.5080     8.2740 na         1 HIP      -0.194100
      7 CE1          6.0070     9.1330     8.6480 cc         1 HIP      -0.085600
      8 ND1          6.9950     8.7760     7.8550 na         1 HIP       0.155100
      9 P            8.7750     9.4950     8.0360 p5         1 HIP       1.046000
     10 O1P          8.5440    10.3220     9.2790 o          1 HIP      -0.860500
     11 O2P          8.9070    10.2400     6.7290 o          1 HIP      -0.860500
     12 O3P          9.5780     8.2270     8.1900 o          1 HIP      -0.860500
     13 C            5.9050     5.2940     5.2190 c          1 HIP       0.929600
     14 O            4.6610     5.2750     5.1200 o          1 HIP      -0.850300
     15 OXT          6.6320     4.3960     5.6840 o          1 HIP      -0.850300
     16 H            4.8560     7.4320     4.3490 hn         1 HIP       0.327300
     17 H2           6.1190     8.3850     3.9650 hn         1 HIP       0.327300
     18 HA           7.4530     6.2070     4.0750 h1         1 HIP       0.046700
     19 HB2          8.0140     8.0550     5.4790 hc         1 HIP       0.092200
     20 HB3          8.0570     6.5550     6.3580 hc         1 HIP       0.092200
     21 HD2          4.4350     7.0970     6.7220 h4         1 HIP       0.211000
     22 HE2          3.9940     8.6100     8.7150 hn         1 HIP       0.280700
     23 HE1          6.0830     9.8250     9.4690 h5         1 HIP       0.223000
@<TRIPOS>BOND
     1     1     2 1   
     2     1    16 1   
     3     1    17 1   
     4     2     3 1   
     5     2    13 1   
     6     2    18 1   
     7     3     4 1   
     8     3    19 1   
     9     3    20 1   
    10     4     5 2   
    11     4     8 1   
    12     5     6 1   
    13     5    21 1   
    14     6     7 2   
    15     6    22 1   
    16     7     8 1   
    17     7    23 1   
    18     8     9 1   
    19     9    10 1   
    20     9    11 1   
    21     9    12 1   
    22    13    14 1   
    23    13    15 1   
@<TRIPOS>SUBSTRUCTURE
     1 HIP         1 TEMP              0 ****  ****    0 ROOT
