@<TRIPOS>MOLECULE
HIT
   25    24     1     0     0
SMALL
abcg2


@<TRIPOS>ATOM
      1 CA1          3.1860     1.0730    -3.3070 c3         1 HIT       0.062300
      2 C3           3.0640    -0.3350    -3.9210 c3         1 HIT      -0.093700
      3 C5           3.9770    -1.3450    -3.2320 c3         1 HIT      -0.085600
      4 C9           3.3330    -0.2920    -5.4240 c3         1 HIT      -0.085600
      5 C13          2.7260     1.1030    -1.8590 c          1 HIT       0.604100
      6 O14          3.4950     1.3700    -0.9650 o          1 HIT      -0.521100
      7 CA2          1.2660     0.8200    -1.6250 c3         1 HIT      -0.312700
      8 C17          0.7160     1.6600    -0.4730 c3         1 HIT      -0.051100
      9 C21          1.0460    -0.6930    -1.2940 c          1 HIT       0.729000
     10 O22          0.1660    -1.2820    -1.9480 o          1 HIT      -0.714000
     11 O1           1.7470    -1.1560    -0.3790 o          1 HIT      -0.714000
     12 O25          4.4900     1.5830    -3.3600 oh         1 HIT      -0.640000
     13 HA1          2.4860     1.7260    -3.8550 h1         1 HIT       0.022700
     14 H3           2.0260    -0.6550    -3.7870 hc         1 HIT       0.096700
     15 H51          3.7290    -1.4690    -2.1770 hc         1 HIT       0.029533
     16 H52          5.0230    -1.0450    -3.3030 hc         1 HIT       0.029533
     17 H53          3.8840    -2.3230    -3.7040 hc         1 HIT       0.029533
     18 H91          2.6960     0.4400    -5.9250 hc         1 HIT       0.029533
     19 H92          4.3730    -0.0480    -5.6500 hc         1 HIT       0.029533
     20 H93          3.1330    -1.2650    -5.8730 hc         1 HIT       0.029533
     21 HA2          0.7130     1.0550    -2.5380 hc         1 HIT       0.041700
     22 H171         1.2190     1.4190     0.4620 hc         1 HIT       0.021700
     23 H172        -0.3490     1.4690    -0.3420 hc         1 HIT       0.021700
     24 H173         0.8390     2.7280    -0.6590 hc         1 HIT       0.021700
     25 HO2          4.7450     1.6550    -4.2840 ho         1 HIT       0.420000
@<TRIPOS>BOND
     1     1     2 1   
     2     1     5 1   
     3     1    12 1   
     4     1    13 1   
     5     2     3 1   
     6     2     4 1   
     7     2    14 1   
     8     3    15 1   
     9     3    16 1   
    10     3    17 1   
    11     4    18 1   
    12     4    19 1   
    13     4    20 1   
    14     5     6 2   
    15     5     7 1   
    16     7     8 1   
    17     7     9 1   
    18     7    21 1   
    19     8    22 1   
    20     8    23 1   
    21     8    24 1   
    22     9    10 1   
    23     9    11 1   
    24    12    25 1   
@<TRIPOS>SUBSTRUCTURE
     1 HIT         1 TEMP              0 ****  ****    0 ROOT
