@<TRIPOS>MOLECULE
HIT
   25    24     1     0     0
SMALL
No Charge or Current Charge


@<TRIPOS>ATOM
      1 CA1          3.1960     1.0360    -3.2360 c3         1 HIT       0.062300
      2 C3           3.1210    -0.3330    -3.9820 c3         1 HIT      -0.093700
      3 C5           4.0520    -1.4110    -3.3710 c3         1 HIT      -0.085600
      4 C9           3.3520    -0.1880    -5.5060 c3         1 HIT      -0.085600
      5 C13          2.7300     0.9420    -1.7350 c          1 HIT       0.604100
      6 O14          3.5170     1.0440    -0.7970 o          1 HIT      -0.521100
      7 CA2          1.2310     0.7470    -1.5010 c3         1 HIT      -0.312700
      8 C17          0.6320     1.7970    -0.5300 c3         1 HIT      -0.051100
      9 C21          1.0130    -0.6870    -1.0390 c          1 HIT       0.729000
     10 O22          0.4000    -1.4320    -1.7850 o          1 HIT      -0.714000
     11 O1           1.4250    -1.0220     0.0600 o          1 HIT      -0.714000
     12 O25          4.5180     1.6090    -3.3870 oh         1 HIT      -0.640000
     13 HA1          2.4740     1.7050    -3.7240 h1         1 HIT       0.022700
     14 H3           2.0950    -0.7040    -3.8690 hc         1 HIT       0.096700
     15 H51          3.8280    -1.5710    -2.3100 hc         1 HIT       0.029533
     16 H52          5.1060    -1.1220    -3.4610 hc         1 HIT       0.029533
     17 H53          3.9190    -2.3700    -3.8870 hc         1 HIT       0.029533
     18 H91          2.6740     0.5610    -5.9320 hc         1 HIT       0.029533
     19 H92          4.3830     0.1120    -5.7290 hc         1 HIT       0.029533
     20 H93          3.1620    -1.1410    -6.0150 hc         1 HIT       0.029533
     21 HA2          0.7310     0.8510    -2.4710 hc         1 HIT       0.041700
     22 H171         1.1000     1.7370     0.4600 hc         1 HIT       0.021700
     23 H172        -0.4460     1.6360    -0.4100 hc         1 HIT       0.021700
     24 H173         0.7840     2.8100    -0.9210 hc         1 HIT       0.021700
     25 HO2          4.7340     1.5900    -4.3440 ho         1 HIT       0.420000
@<TRIPOS>BOND
     1     1     2 1   
     2     1     5 1   
     3     1    12 1   
     4     1    13 1   
     5     2     3 1   
     6     2     4 1   
     7     2    14 1   
     8     3    15 1   
     9     3    16 1   
    10     3    17 1   
    11     4    18 1   
    12     4    19 1   
    13     4    20 1   
    14     5     6 2   
    15     5     7 1   
    16     7     8 1   
    17     7     9 1   
    18     7    21 1   
    19     8    22 1   
    20     8    23 1   
    21     8    24 1   
    22     9    10 1   
    23     9    11 1   
    24    12    25 1   
@<TRIPOS>SUBSTRUCTURE
     1 HIT         1 TEMP              0 ****  ****    0 ROOT
