@<TRIPOS>MOLECULE
HIU
   14    13     1     0     0
SMALL
bcc


@<TRIPOS>ATOM
      1 O1           2.1410     0.5300    -0.2170 o          1 HIU      -0.844300
      2 C1           1.1850    -0.2530    -0.0480 c          1 HIU       0.930600
      3 O2           1.2710    -1.4530     0.2830 o          1 HIU      -0.844300
      4 C2          -0.2290     0.3270    -0.2890 c3         1 HIU      -0.196700
      5 C3          -0.4050     1.6570     0.4410 c3         1 HIU      -0.055100
      6 C4          -1.3210    -0.6650     0.0700 c3         1 HIU       0.147400
      7 O3          -2.5840    -0.1160    -0.2670 oh         1 HIU      -0.626800
      8 H2          -0.3050     0.5270    -1.3670 hc         1 HIU       0.034700
      9 H31          0.3680     2.3650     0.1460 hc         1 HIU       0.014700
     10 H32         -1.3720     2.1100     0.2270 hc         1 HIU       0.014700
     11 H33         -0.3350     1.5220     1.5240 hc         1 HIU       0.014700
     12 H41         -1.1530    -1.6070    -0.4640 h1         1 HIU       0.020700
     13 H42         -1.2670    -0.8950     1.1440 h1         1 HIU       0.020700
     14 HO3         -3.2560    -0.7620    -0.0340 ho         1 HIU       0.370000
@<TRIPOS>BOND
     1     1     2 1   
     2     2     3 1   
     3     2     4 1   
     4     4     5 1   
     5     4     6 1   
     6     4     8 1   
     7     5     9 1   
     8     5    10 1   
     9     5    11 1   
    10     6     7 1   
    11     6    12 1   
    12     6    13 1   
    13     7    14 1   
@<TRIPOS>SUBSTRUCTURE
     1 HIU         1 TEMP              0 ****  ****    0 ROOT
