@<TRIPOS>MOLECULE
HIU
   14    13     1     0     0
SMALL
No Charge or Current Charge


@<TRIPOS>ATOM
      1 O1           1.9220    -0.2100    -1.0560 o          1 HIU      -0.739000
      2 C1           1.1670    -0.2200    -0.0950 c          1 HIU       0.720000
      3 O2           1.4650    -0.7090     0.9850 o          1 HIU      -0.739000
      4 C2          -0.2270     0.4150    -0.2620 c3         1 HIU      -0.196700
      5 C3          -0.4070     1.6330     0.6810 c3         1 HIU      -0.055100
      6 C4          -1.3120    -0.6650    -0.0710 c3         1 HIU       0.170600
      7 O3          -2.5940    -0.1580    -0.4640 oh         1 HIU      -0.689000
      8 H2          -0.2990     0.7850    -1.2920 hc         1 HIU       0.034700
      9 H31          0.4000     2.3600     0.5250 hc         1 HIU       0.014700
     10 H32         -1.3590     2.1420     0.4900 hc         1 HIU       0.014700
     11 H33         -0.3890     1.3230     1.7330 hc         1 HIU       0.014700
     12 H41         -1.0560    -1.5400    -0.6840 h1         1 HIU       0.020700
     13 H42         -1.3330    -0.9870     0.9790 h1         1 HIU       0.020700
     14 HO3         -3.2410    -0.8820    -0.3200 ho         1 HIU       0.409000
@<TRIPOS>BOND
     1     1     2 1   
     2     2     3 1   
     3     2     4 1   
     4     4     5 1   
     5     4     6 1   
     6     4     8 1   
     7     5     9 1   
     8     5    10 1   
     9     5    11 1   
    10     6     7 1   
    11     6    12 1   
    12     6    13 1   
    13     7    14 1   
@<TRIPOS>SUBSTRUCTURE
     1 HIU         1 TEMP              0 ****  ****    0 ROOT
