@<TRIPOS>MOLECULE
HIW
   38    38     1     0     0
SMALL
abcg2


@<TRIPOS>ATOM
      1 O31         -1.1990     2.7250     0.1500 o          1 HIW      -0.727000
      2 C31         -0.4080     2.2120    -0.6650 c          1 HIW       0.647700
      3 O32         -0.0880     2.6340    -1.7880 o          1 HIW      -0.727000
      4 C3           0.2540     0.9280    -0.1870 ce         1 HIW       0.313300
      5 N4           1.3430     0.5000    -0.6720 n2         1 HIW      -0.494900
      6 C2          -0.3240     0.0710     0.9140 c5         1 HIW       0.047000
      7 C1           0.8890    -0.7780     1.2890 c5         1 HIW      -0.102400
      8 C5           1.7490    -0.7170     0.0160 c5         1 HIW       0.117500
      9 C6           3.2640    -0.8030     0.2420 c3         1 HIW      -0.196700
     10 C7           3.7350     0.2680     1.2480 c          1 HIW       0.715000
     11 O71          3.8160     1.4370     0.8240 o          1 HIW      -0.734500
     12 O72          3.9820    -0.1120     2.4130 o          1 HIW      -0.734500
     13 C61          4.0400    -0.7050    -1.0760 c3         1 HIW       0.177300
     14 O62          3.5570    -1.6210    -2.0490 oh         1 HIW      -0.676000
     15 C62          5.5360    -0.8970    -0.8670 c3         1 HIW      -0.110100
     16 S21         -1.6160    -1.0420     0.2460 ss         1 HIW      -0.532000
     17 C22         -3.0450     0.0550     0.0210 c3         1 HIW       0.060600
     18 C23         -4.3060    -0.7950     0.0310 c3         1 HIW       0.224800
     19 N24         -5.4560     0.0320    -0.2430 nu         1 HIW      -0.900400
     20 C25         -6.7200    -0.4100    -0.0620 c2         1 HIW       0.631100
     21 N26         -6.9960    -1.5310     0.4810 n2         1 HIW      -0.877100
     22 H5          -0.7530     0.6340     1.7410 h1         1 HIW       0.084700
     23 H6           1.4030    -0.3120     2.1310 hc         1 HIW       0.059200
     24 H7           0.6420    -1.7970     1.5900 hc         1 HIW       0.059200
     25 H8           1.4760    -1.5510    -0.6430 h1         1 HIW       0.032700
     26 H9           3.4600    -1.7940     0.6740 hc         1 HIW       0.010700
     27 H11          3.8610     0.2840    -1.4980 h1         1 HIW       0.117700
     28 H12          3.6950    -2.5120    -1.7120 ho         1 HIW       0.402000
     29 H13          5.7490    -1.8740    -0.4230 hc         1 HIW       0.020367
     30 H14          6.0720    -0.8350    -1.8150 hc         1 HIW       0.020367
     31 H15          5.9490    -0.1360    -0.2060 hc         1 HIW       0.020367
     32 H16         -3.0680     0.7840     0.8300 h1         1 HIW       0.083200
     33 H17         -2.9590     0.6020    -0.9200 h1         1 HIW       0.083200
     34 H18         -4.2230    -1.6110    -0.6980 h1         1 HIW       0.048700
     35 H19         -4.4280    -1.2600     1.0100 h1         1 HIW       0.048700
     36 H20         -5.3310     0.8110    -0.8680 hn         1 HIW       0.488000
     37 H21         -7.4650     0.3060    -0.4150 h5         1 HIW      -0.054200
     38 H22         -8.0010    -1.6310     0.5470 hn         1 HIW       0.353400
@<TRIPOS>BOND
     1     1     2 1   
     2     2     3 1   
     3     2     4 1   
     4     4     5 2   
     5     4     6 1   
     6     5     8 1   
     7     6     7 1   
     8     6    16 1   
     9     6    22 1   
    10     7     8 1   
    11     7    23 1   
    12     7    24 1   
    13     8     9 1   
    14     8    25 1   
    15     9    10 1   
    16     9    13 1   
    17     9    26 1   
    18    10    11 1   
    19    10    12 1   
    20    13    14 1   
    21    13    15 1   
    22    13    27 1   
    23    14    28 1   
    24    15    29 1   
    25    15    30 1   
    26    15    31 1   
    27    16    17 1   
    28    17    18 1   
    29    17    32 1   
    30    17    33 1   
    31    18    19 1   
    32    18    34 1   
    33    18    35 1   
    34    19    20 1   
    35    19    36 1   
    36    20    21 2   
    37    20    37 1   
    38    21    38 1   
@<TRIPOS>SUBSTRUCTURE
     1 HIW         1 TEMP              0 ****  ****    0 ROOT
