@<TRIPOS>MOLECULE
HIW
   38    38     1     0     0
SMALL
No Charge or Current Charge


@<TRIPOS>ATOM
      1 O31         -1.3600     2.9340     0.4830 o          1 HIW      -0.727000
      2 C31         -0.4580     2.5290    -0.2450 c          1 HIW       0.647700
      3 O32         -0.0530     3.2050    -1.1870 o          1 HIW      -0.727000
      4 C3           0.1720     1.1490     0.0160 ce         1 HIW       0.313300
      5 N4           1.2360     0.6650    -0.5690 n2         1 HIW      -0.494900
      6 C2          -0.2770     0.4270     1.2930 c5         1 HIW       0.047000
      7 C1           1.0740    -0.2310     1.6590 c5         1 HIW      -0.102400
      8 C5           1.6620    -0.5050     0.2410 c5         1 HIW       0.117500
      9 C6           3.2010    -0.7620     0.1880 c3         1 HIW      -0.196700
     10 C7           4.0100     0.3340     0.9200 c          1 HIW       0.715000
     11 O71          4.0750     1.4560     0.4370 o          1 HIW      -0.734500
     12 O72          4.6000     0.0190     1.9440 o          1 HIW      -0.734500
     13 C61          3.7570    -0.9980    -1.2440 c3         1 HIW       0.177300
     14 O62          3.1010    -2.1340    -1.8270 oh         1 HIW      -0.676000
     15 C62          5.2790    -1.2730    -1.2830 c3         1 HIW      -0.110100
     16 S21         -1.4950    -0.9470     0.8900 ss         1 HIW      -0.532000
     17 C22         -2.9920     0.0230     0.3650 c3         1 HIW       0.060600
     18 C23         -4.1980    -0.9040     0.0940 c3         1 HIW       0.224800
     19 N24         -5.3930    -0.1400    -0.3240 nu         1 HIW      -0.900400
     20 C25         -6.6140    -0.6760    -0.6360 c2         1 HIW       0.631100
     21 N26         -6.7680    -1.9390    -0.6340 n2         1 HIW      -0.877100
     22 H5          -0.6610     1.0880     2.0810 h1         1 HIW       0.084700
     23 H6           1.6910     0.4700     2.2310 hc         1 HIW       0.059200
     24 H7           0.9670    -1.1390     2.2630 hc         1 HIW       0.059200
     25 H8           1.1720    -1.3950    -0.1780 h1         1 HIW       0.032700
     26 H9           3.3600    -1.6920     0.7500 hc         1 HIW       0.010700
     27 H11          3.5630    -0.0960    -1.8450 h1         1 HIW       0.117700
     28 H12          3.2840    -2.8940    -1.2370 ho         1 HIW       0.402000
     29 H13          5.5410    -2.1270    -0.6480 hc         1 HIW       0.020367
     30 H14          5.6030    -1.4940    -2.3070 hc         1 HIW       0.020367
     31 H15          5.8470    -0.4010    -0.9400 hc         1 HIW       0.020367
     32 H16         -3.2530     0.7370     1.1570 h1         1 HIW       0.083200
     33 H17         -2.7560     0.5870    -0.5470 h1         1 HIW       0.083200
     34 H18         -3.9210    -1.6230    -0.6890 h1         1 HIW       0.048700
     35 H19         -4.4190    -1.4730     1.0080 h1         1 HIW       0.048700
     36 H20         -5.3520     0.8770    -0.3170 hn         1 HIW       0.488000
     37 H21         -7.3970     0.0420    -0.8760 h5         1 HIW      -0.054200
     38 H22         -7.7440    -2.1380    -0.8930 hn         1 HIW       0.353400
@<TRIPOS>BOND
     1     1     2 1   
     2     2     3 1   
     3     2     4 1   
     4     4     5 2   
     5     4     6 1   
     6     5     8 1   
     7     6     7 1   
     8     6    16 1   
     9     6    22 1   
    10     7     8 1   
    11     7    23 1   
    12     7    24 1   
    13     8     9 1   
    14     8    25 1   
    15     9    10 1   
    16     9    13 1   
    17     9    26 1   
    18    10    11 1   
    19    10    12 1   
    20    13    14 1   
    21    13    15 1   
    22    13    27 1   
    23    14    28 1   
    24    15    29 1   
    25    15    30 1   
    26    15    31 1   
    27    16    17 1   
    28    17    18 1   
    29    17    32 1   
    30    17    33 1   
    31    18    19 1   
    32    18    34 1   
    33    18    35 1   
    34    19    20 1   
    35    19    36 1   
    36    20    21 2   
    37    20    37 1   
    38    21    38 1   
@<TRIPOS>SUBSTRUCTURE
     1 HIW         1 TEMP              0 ****  ****    0 ROOT
