@<TRIPOS>MOLECULE
HIY
   54    57     1     0     0
SMALL
No Charge or Current Charge


@<TRIPOS>ATOM
      1 N1          24.3440     3.6710    -4.4830 nb         1 HIY      -0.302000
      2 C7          21.5960    -2.4560    -3.3310 c3         1 HIY       0.031600
      3 C8          19.8380    -4.6140    -2.6310 c3         1 HIY       0.025600
      4 N2          24.4010     1.9170    -2.8160 nb         1 HIY      -0.217000
      5 C9          20.0520    -5.1480    -1.1980 c3         1 HIY       0.117000
      6 O1          17.8440    -6.9570    -1.4510 o          1 HIY      -0.620100
      7 C1          24.4100     3.2130    -3.2100 ca         1 HIY       0.184900
      8 C5          24.3680    -1.2450    -2.5800 c5         1 HIY       0.316300
      9 C6          22.7360    -2.9330    -2.3860 c5         1 HIY       0.169300
     10 N3          24.1880     0.2610    -5.9720 nc         1 HIY      -0.550100
     11 C4          24.2220    -0.7650    -5.1020 cd         1 HIY       0.406700
     12 C3          24.2490     1.3600    -5.1230 ca         1 HIY      -0.102600
     13 O3          24.1120    -0.3030    -0.2340 oh         1 HIY      -0.692000
     14 C2          24.3170     1.0000    -3.8010 ca         1 HIY       0.143500
     15 N4          24.2860    -0.3710    -3.7510 na         1 HIY      -0.287300
     16 C10         18.9630    -7.4180    -1.2810 c          1 HIY       0.660100
     17 N6          19.2750    -8.7650    -1.2000 ns         1 HIY      -0.165000
     18 C11         18.4770    -9.9390    -1.2860 ca         1 HIY      -0.005000
     19 C16         17.0810    -9.9230    -1.5040 ca         1 HIY      -0.151000
     20 C15         16.3580   -11.1270    -1.5780 ca         1 HIY      -0.083500
     21 C14         17.0200   -12.3570    -1.4350 ca         1 HIY      -0.138000
     22 C13         18.4060   -12.3840    -1.2180 ca         1 HIY      -0.083500
     23 C12         19.1290   -11.1800    -1.1450 ca         1 HIY      -0.151000
     24 N5          20.0720    -6.6150    -1.1430 ns         1 HIY      -0.526900
     25 O           24.0210    -2.6010    -2.9560 os         1 HIY      -0.453000
     26 C17         22.7820    -2.2370    -0.9910 c5         1 HIY       0.109300
     27 O2          23.6260    -2.9120    -0.0500 oh         1 HIY      -0.711000
     28 C18         23.4230    -0.8690    -1.3700 c5         1 HIY       0.085300
     29 C           24.2610     2.7350    -5.4390 ca         1 HIY       0.451900
     30 N           24.2030     3.1920    -6.7190 nv         1 HIY      -1.064900
     31 H1          21.6960    -2.9750    -4.2930 h1         1 HIY       0.082200
     32 H2          21.6960    -1.3810    -3.5250 h1         1 HIY       0.082200
     33 H3          18.8570    -4.9440    -2.9950 h1         1 HIY       0.079200
     34 H4          20.6050    -5.0210    -3.3030 h1         1 HIY       0.079200
     35 H5          21.0030    -4.7720    -0.8020 h1         1 HIY       0.070700
     36 H6          19.2490    -4.7760    -0.5480 h1         1 HIY       0.070700
     37 H7          24.4770     3.9620    -2.4240 h5         1 HIY       0.047100
     38 H8          25.4180    -1.2190    -2.2600 h2         1 HIY       0.123700
     39 H9          22.6680    -4.0240    -2.2830 h1         1 HIY       0.086700
     40 H10         24.2030    -1.8130    -5.3770 h5         1 HIY       0.063800
     41 H11         24.2950     0.6460    -0.4400 ho         1 HIY       0.517000
     42 H12         20.2570    -8.9550    -1.0530 hn         1 HIY       0.143000
     43 H13         16.5380    -8.9910    -1.6200 ha         1 HIY       0.125000
     44 H14         15.2840   -11.1050    -1.7470 ha         1 HIY       0.112500
     45 H15         16.4590   -13.2870    -1.4920 ha         1 HIY       0.115000
     46 H16         18.9210   -13.3360    -1.1070 ha         1 HIY       0.112500
     47 H17         20.2030   -11.2150    -0.9760 ha         1 HIY       0.125000
     48 H18         20.9600    -7.0790    -0.9960 hn         1 HIY       0.309500
     49 H19         21.7750    -2.1010    -0.5710 h1         1 HIY       0.075700
     50 H20         24.1380    -2.1630     0.3510 ho         1 HIY       0.526000
     51 H21         22.6350    -0.1820    -1.7110 h1         1 HIY       0.053700
     52 H22         24.5120     4.1430    -6.8990 hn         1 HIY       0.507000
     53 H23         24.3630     2.5120    -7.4580 hn         1 HIY       0.507000
     54 S           19.8880    -2.7600    -2.6650 ss         1 HIY      -0.413000
@<TRIPOS>BOND
     1     1     7 ar  
     2     1    29 ar  
     3     2     9 1   
     4     2    31 1   
     5     2    32 1   
     6     2    54 1   
     7     3     5 1   
     8     3    33 1   
     9     3    34 1   
    10     3    54 1   
    11     4     7 ar  
    12     4    14 ar  
    13     5    24 1   
    14     5    35 1   
    15     5    36 1   
    16     6    16 2   
    17     7    37 1   
    18     8    15 1   
    19     8    25 1   
    20     8    28 1   
    21     8    38 1   
    22     9    25 1   
    23     9    26 1   
    24     9    39 1   
    25    10    11 2   
    26    10    12 1   
    27    11    15 1   
    28    11    40 1   
    29    12    14 ar  
    30    12    29 ar  
    31    13    28 1   
    32    13    41 1   
    33    14    15 1   
    34    16    17 1   
    35    16    24 1   
    36    17    18 1   
    37    17    42 1   
    38    18    19 ar  
    39    18    23 ar  
    40    19    20 ar  
    41    19    43 1   
    42    20    21 ar  
    43    20    44 1   
    44    21    22 ar  
    45    21    45 1   
    46    22    23 ar  
    47    22    46 1   
    48    23    47 1   
    49    24    48 1   
    50    26    27 1   
    51    26    28 1   
    52    26    49 1   
    53    27    50 1   
    54    28    51 1   
    55    29    30 1   
    56    30    52 1   
    57    30    53 1   
@<TRIPOS>SUBSTRUCTURE
     1 HIY         1 TEMP              0 ****  ****    0 ROOT
