@<TRIPOS>MOLECULE
HIY
   54    57     1     0     0
SMALL
abcg2


@<TRIPOS>ATOM
      1 N1          27.1170     2.0370    -4.4990 nb         1 HIY      -0.302000
      2 C7          20.3030    -2.2550    -3.5400 c3         1 HIY       0.031600
      3 C8          19.2460    -4.7600    -2.7680 c3         1 HIY       0.025600
      4 N2          26.0320     0.3920    -3.1500 nb         1 HIY      -0.217000
      5 C9          19.7320    -5.2230    -1.3960 c3         1 HIY       0.117000
      6 O1          18.0330    -7.4010    -0.9370 o          1 HIY      -0.620100
      7 C1          27.0690     1.1080    -3.5490 ca         1 HIY       0.184900
      8 C5          23.2770    -0.8530    -2.7750 c5         1 HIY       0.316300
      9 C6          21.5780    -2.4460    -2.7290 c5         1 HIY       0.169300
     10 N3          23.5470     1.6770    -5.3430 nc         1 HIY      -0.550100
     11 C4          22.9000     0.7970    -4.6390 cd         1 HIY       0.406700
     12 C3          24.8280     1.6310    -4.8540 ca         1 HIY      -0.102600
     13 O3          22.8640     0.2790    -0.7090 oh         1 HIY      -0.692000
     14 C2          24.9330     0.6940    -3.8380 ca         1 HIY       0.143500
     15 N4          23.6810     0.1660    -3.7080 na         1 HIY      -0.287300
     16 C10         19.2090    -7.6110    -1.1940 c          1 HIY       0.660100
     17 N6          19.7550    -8.8680    -1.2990 ns         1 HIY      -0.165000
     18 C11         19.1090   -10.0960    -1.1660 ca         1 HIY      -0.005000
     19 C16         17.9050   -10.2820    -0.4820 ca         1 HIY      -0.151000
     20 C15         17.3610   -11.5550    -0.3760 ca         1 HIY      -0.083500
     21 C14         17.9940   -12.6600    -0.9280 ca         1 HIY      -0.138000
     22 C13         19.1950   -12.4760    -1.6000 ca         1 HIY      -0.083500
     23 C12         19.7450   -11.2110    -1.7210 ca         1 HIY      -0.151000
     24 N5          20.1100    -6.6140    -1.3810 ns         1 HIY      -0.526900
     25 O           22.6830    -1.9130    -3.4700 os         1 HIY      -0.453000
     26 C17         21.5900    -1.7270    -1.3840 c5         1 HIY       0.109300
     27 O2          22.4110    -2.4560    -0.5060 oh         1 HIY      -0.711000
     28 C18         22.2360    -0.3930    -1.7600 c5         1 HIY       0.085300
     29 C           26.0040     2.3300    -5.1810 ca         1 HIY       0.451900
     30 N           26.0470     3.2700    -6.1270 nv         1 HIY      -1.064900
     31 H1          20.4390    -2.6740    -4.5390 h1         1 HIY       0.082200
     32 H2          20.0670    -1.1950    -3.6610 h1         1 HIY       0.082200
     33 H3          18.3450    -5.3070    -3.0480 h1         1 HIY       0.079200
     34 H4          19.9940    -4.9540    -3.5400 h1         1 HIY       0.079200
     35 H5          20.5990    -4.6420    -1.0830 h1         1 HIY       0.070700
     36 H6          18.9560    -5.0480    -0.6530 h1         1 HIY       0.070700
     37 H7          28.0060     0.9170    -3.0360 h5         1 HIY       0.047100
     38 H8          24.1900    -1.1690    -2.2580 h2         1 HIY       0.123700
     39 H9          21.7600    -3.5150    -2.5880 h1         1 HIY       0.086700
     40 H10         21.8530     0.5580    -4.7550 h5         1 HIY       0.063800
     41 H11         22.2170     0.8270    -0.2530 ho         1 HIY       0.517000
     42 H12         20.7090    -8.9270    -1.6200 hn         1 HIY       0.143000
     43 H13         17.3930    -9.4480    -0.0290 ha         1 HIY       0.125000
     44 H14         16.4280   -11.6790     0.1580 ha         1 HIY       0.112500
     45 H15         17.5600   -13.6460    -0.8330 ha         1 HIY       0.115000
     46 H16         19.7100   -13.3210    -2.0390 ha         1 HIY       0.112500
     47 H17         20.6790   -11.0840    -2.2560 ha         1 HIY       0.125000
     48 H18         21.0490    -6.8330    -1.6730 hn         1 HIY       0.309500
     49 H19         20.5780    -1.6000    -0.9820 h1         1 HIY       0.075700
     50 H20         22.6550    -1.8790     0.2260 ho         1 HIY       0.526000
     51 H21         21.4890     0.2390    -2.2580 h1         1 HIY       0.053700
     52 H22         26.9220     3.7050    -6.3660 hn         1 HIY       0.507000
     53 H23         25.2430     3.4740    -6.6940 hn         1 HIY       0.507000
     54 S           18.8260    -2.9910    -2.7870 ss         1 HIY      -0.413000
@<TRIPOS>BOND
     1     1     7 ar  
     2     1    29 ar  
     3     2     9 1   
     4     2    31 1   
     5     2    32 1   
     6     2    54 1   
     7     3     5 1   
     8     3    33 1   
     9     3    34 1   
    10     3    54 1   
    11     4     7 ar  
    12     4    14 ar  
    13     5    24 1   
    14     5    35 1   
    15     5    36 1   
    16     6    16 2   
    17     7    37 1   
    18     8    15 1   
    19     8    25 1   
    20     8    28 1   
    21     8    38 1   
    22     9    25 1   
    23     9    26 1   
    24     9    39 1   
    25    10    11 2   
    26    10    12 1   
    27    11    15 1   
    28    11    40 1   
    29    12    14 ar  
    30    12    29 ar  
    31    13    28 1   
    32    13    41 1   
    33    14    15 1   
    34    16    17 1   
    35    16    24 1   
    36    17    18 1   
    37    17    42 1   
    38    18    19 ar  
    39    18    23 ar  
    40    19    20 ar  
    41    19    43 1   
    42    20    21 ar  
    43    20    44 1   
    44    21    22 ar  
    45    21    45 1   
    46    22    23 ar  
    47    22    46 1   
    48    23    47 1   
    49    24    48 1   
    50    26    27 1   
    51    26    28 1   
    52    26    49 1   
    53    27    50 1   
    54    28    51 1   
    55    29    30 1   
    56    30    52 1   
    57    30    53 1   
@<TRIPOS>SUBSTRUCTURE
     1 HIY         1 TEMP              0 ****  ****    0 ROOT
