@<TRIPOS>MOLECULE
HIZ
   46    48     1     0     0
SMALL
bcc


@<TRIPOS>ATOM
      1 NAA          3.7690    -1.3930     1.8390 n8         1 HIZ      -0.860800
      2 OAB         -2.7060    -1.5750    -0.4810 o          1 HIZ      -0.599100
      3 CLAD        -7.6570     2.9380     0.0370 cl         1 HIZ      -0.070400
      4 CAE         10.1360     1.1940     0.0140 ca         1 HIZ      -0.121000
      5 CAF          9.5790     0.6960    -1.1570 ca         1 HIZ      -0.134000
      6 CAG          9.3120     1.7290     0.9960 ca         1 HIZ      -0.134000
      7 CAH          8.2040     0.7310    -1.3410 ca         1 HIZ      -0.104500
      8 CAI          7.9370     1.7630     0.8060 ca         1 HIZ      -0.104500
      9 CAJ         -6.8250    -0.9500     0.1150 ca         1 HIZ      -0.140000
     10 CAK         -5.4570    -0.9720     0.3300 ca         1 HIZ      -0.105000
     11 CAL          1.5480    -2.5910    -0.6780 cc         1 HIZ      -0.232400
     12 CAM         -5.4320     1.4350     0.3440 ca         1 HIZ      -0.145000
     13 CAN          5.8800     1.2630    -0.5510 c3         1 HIZ       0.183700
     14 CAO          3.9810    -0.0540    -0.1920 c3         1 HIZ       0.146400
     15 NAP          1.1230    -0.6970     0.5510 nd         1 HIZ      -0.721000
     16 NAQ         -3.3720     0.2770     0.6840 ns         1 HIZ      -0.480100
     17 OAS          5.3730     0.0480    -0.0450 os         1 HIZ      -0.388600
     18 SAT         -0.1700    -2.4600    -0.7910 ss         1 HIZ      -0.076300
     19 CAU         -2.4510    -0.5990     0.2000 c          1 HIZ       0.800100
     20 CAV          7.3690     1.2670    -0.3640 ca         1 HIZ      -0.085300
     21 CAW         -7.4910     0.2550     0.0260 ca         1 HIZ       0.129900
     22 CAX         -4.7490     0.2250     0.4360 ca         1 HIZ       0.066600
     23 CAY         -6.8020     1.4480     0.1480 ca         1 HIZ      -0.001600
     24 CAZ          2.0540    -1.5790     0.0640 cd         1 HIZ       0.327600
     25 CBA         -0.0700    -1.0320     0.1840 cc         1 HIZ       0.550300
     26 CBB          3.5040    -1.3700     0.4090 c3         1 HIZ       0.141200
     27 HNAA         3.1780    -0.7110     2.3000 hn         1 HIZ       0.343800
     28 HNAB         3.5030    -2.2930     2.2180 hn         1 HIZ       0.343800
     29 HAE         11.2090     1.1710     0.1590 ha         1 HIZ       0.128000
     30 HAF         10.2150     0.2810    -1.9280 ha         1 HIZ       0.129500
     31 HAG          9.7400     2.1230     1.9080 ha         1 HIZ       0.129500
     32 HAH          7.7740     0.3430    -2.2570 ha         1 HIZ       0.130500
     33 HAI          7.3010     2.1870     1.5750 ha         1 HIZ       0.130500
     34 HAJ         -7.3780    -1.8760     0.0300 ha         1 HIZ       0.159000
     35 HAK         -4.9600    -1.9240     0.4260 ha         1 HIZ       0.166000
     36 HAL          2.0790    -3.3990    -1.1580 h4         1 HIZ       0.182000
     37 HAM         -4.8960     2.3720     0.4230 ha         1 HIZ       0.148000
     38 HAN          5.6340     1.3730    -1.6160 h1         1 HIZ       0.024700
     39 HANA         5.4280     2.1170    -0.0290 h1         1 HIZ       0.024700
     40 HAO          3.4680     0.7840     0.3030 h1         1 HIZ       0.026700
     41 HAOA         3.6980    -0.0170    -1.2540 h1         1 HIZ       0.026700
     42 HNAQ        -3.0370     1.1230     1.1200 hn         1 HIZ       0.324500
     43 HNAR        -0.9590     0.5180     1.1240 hn         1 HIZ       0.338500
     44 HBB          4.0730    -2.1810    -0.0540 h1         1 HIZ       0.076700
     45 NAR         -1.1630    -0.2920     0.5560 ns         1 HIZ      -0.553400
     46 FAC         -8.8120     0.2780    -0.1690 f          1 HIZ      -0.122900
@<TRIPOS>BOND
     1     1    26 1   
     2     1    27 1   
     3     1    28 1   
     4     2    19 2   
     5     3    23 1   
     6     4     5 ar  
     7     4     6 ar  
     8     4    29 1   
     9     5     7 ar  
    10     5    30 1   
    11     6     8 ar  
    12     6    31 1   
    13     7    20 ar  
    14     7    32 1   
    15     8    20 ar  
    16     8    33 1   
    17     9    10 ar  
    18     9    21 ar  
    19     9    34 1   
    20    10    22 ar  
    21    10    35 1   
    22    11    18 1   
    23    11    24 2   
    24    11    36 1   
    25    12    22 ar  
    26    12    23 ar  
    27    12    37 1   
    28    13    17 1   
    29    13    20 1   
    30    13    38 1   
    31    13    39 1   
    32    14    17 1   
    33    14    26 1   
    34    14    40 1   
    35    14    41 1   
    36    15    24 1   
    37    15    25 2   
    38    16    19 1   
    39    16    22 1   
    40    16    42 1   
    41    18    25 1   
    42    19    45 1   
    43    21    23 ar  
    44    21    46 1   
    45    24    26 1   
    46    25    45 1   
    47    26    44 1   
    48    43    45 1   
@<TRIPOS>SUBSTRUCTURE
     1 HIZ         1 TEMP              0 ****  ****    0 ROOT
