@<TRIPOS>MOLECULE
HIZ
   46    48     1     0     0
SMALL
No Charge or Current Charge


@<TRIPOS>ATOM
      1 NAA          3.5370    -0.8340     2.0510 n8         1 HIZ      -0.971200
      2 OAB         -2.8610    -1.8750    -0.6650 o          1 HIZ      -0.599100
      3 ClAD        -7.6750     2.7520     1.7490 cl         1 HIZ      -0.162000
      4 CAE         10.3080     1.2960     0.1530 ca         1 HIZ      -0.103000
      5 CAF          9.8620     0.4560    -0.8810 ca         1 HIZ      -0.116000
      6 CAG          9.3870     2.0850     0.8620 ca         1 HIZ      -0.116000
      7 CAH          8.4950     0.4040    -1.2060 ca         1 HIZ      -0.086500
      8 CAI          8.0190     2.0340     0.5370 ca         1 HIZ      -0.086500
      9 CAJ         -7.0910    -0.6470    -0.4000 ca         1 HIZ      -0.122000
     10 CAK         -5.6940    -0.8100    -0.3310 ca         1 HIZ      -0.087000
     11 CAL          1.7380    -2.6540    -0.5900 cc         1 HIZ      -0.294000
     12 CAM         -5.5300     1.2120     1.0120 ca         1 HIZ      -0.127000
     13 CAN          6.0860     1.1410    -0.8550 c3         1 HIZ       0.206900
     14 CAO          4.0490    -0.0480    -0.3200 c3         1 HIZ       0.169600
     15 NAP          0.9900    -0.7610     0.5450 nd         1 HIZ      -0.721000
     16 NAQ         -3.4840     0.0240     0.4940 ns         1 HIZ      -0.154000
     17 OAS          5.4590     0.1160    -0.0680 os         1 HIZ      -0.435000
     18 SAT          0.0230    -2.7400    -0.8670 ss         1 HIZ       0.068600
     19 CAU         -2.5700    -0.8990     0.0070 c          1 HIZ       0.666100
     20 CAV          7.5660     1.1940    -0.5000 ca         1 HIZ      -0.085300
     21 CAW         -7.7050     0.4430     0.2350 ca         1 HIZ       0.165000
     22 CAX         -4.9000     0.1210     0.3790 ca         1 HIZ      -0.026000
     23 CAY         -6.9250     1.3750     0.9430 ca         1 HIZ       0.090000
     24 CAZ          2.0720    -1.5520     0.1620 cd         1 HIZ       0.262300
     25 CBA         -0.1330    -1.2690     0.0730 cc         1 HIZ       0.550300
     26 CBB          3.4870    -1.1790     0.5910 c3         1 HIZ       0.141200
     27 HNAA         2.8090    -0.1290     2.2150 hn         1 HIZ       0.399000
     28 HNAB         3.1930    -1.6380     2.5870 hn         1 HIZ       0.399000
     29 HAE         11.3660     1.3360     0.4040 ha         1 HIZ       0.110000
     30 HAF         10.5750    -0.1560    -1.4300 ha         1 HIZ       0.111500
     31 HAG          9.7310     2.7350     1.6630 ha         1 HIZ       0.111500
     32 HAH          8.1570    -0.2500    -2.0070 ha         1 HIZ       0.112500
     33 HAI          7.3110     2.6450     1.0920 ha         1 HIZ       0.112500
     34 HAJ         -7.6980    -1.3640    -0.9460 ha         1 HIZ       0.141000
     35 HAK         -5.2540    -1.6650    -0.8340 ha         1 HIZ       0.148000
     36 HAL          2.3880    -3.4160    -0.9990 h4         1 HIZ       0.164000
     37 HAM         -4.9380     1.9390     1.5630 ha         1 HIZ       0.130000
     38 HAN          5.9740     0.9290    -1.9260 h1         1 HIZ       0.024700
     39 HANA         5.6250     2.1180    -0.6540 h1         1 HIZ       0.024700
     40 HAO          3.5050     0.8870    -0.1250 h1         1 HIZ       0.026700
     41 HAOA         3.8840    -0.3220    -1.3710 h1         1 HIZ       0.026700
     42 HNAQ        -3.0720     0.7730     1.0340 hn         1 HIZ       0.158000
     43 HNAR        -1.1700     0.2380     0.9240 hn         1 HIZ       0.338500
     44 HBB          4.1210    -2.0630     0.4330 h1         1 HIZ       0.076700
     45 NAR         -1.2860    -0.5940     0.3680 ns         1 HIZ      -0.486400
     46 FAC         -9.0480     0.5880     0.1600 f          1 HIZ      -0.158000
@<TRIPOS>BOND
     1     1    26 1   
     2     1    27 1   
     3     1    28 1   
     4     2    19 2   
     5     3    23 1   
     6     4     5 ar  
     7     4     6 ar  
     8     4    29 1   
     9     5     7 ar  
    10     5    30 1   
    11     6     8 ar  
    12     6    31 1   
    13     7    20 ar  
    14     7    32 1   
    15     8    20 ar  
    16     8    33 1   
    17     9    10 ar  
    18     9    21 ar  
    19     9    34 1   
    20    10    22 ar  
    21    10    35 1   
    22    11    18 1   
    23    11    24 2   
    24    11    36 1   
    25    12    22 ar  
    26    12    23 ar  
    27    12    37 1   
    28    13    17 1   
    29    13    20 1   
    30    13    38 1   
    31    13    39 1   
    32    14    17 1   
    33    14    26 1   
    34    14    40 1   
    35    14    41 1   
    36    15    24 1   
    37    15    25 2   
    38    16    19 1   
    39    16    22 1   
    40    16    42 1   
    41    18    25 1   
    42    19    45 1   
    43    21    23 ar  
    44    21    46 1   
    45    24    26 1   
    46    25    45 1   
    47    26    44 1   
    48    43    45 1   
@<TRIPOS>SUBSTRUCTURE
     1 HIZ         1 TEMP              0 ****  ****    0 ROOT
