@<TRIPOS>MOLECULE
HJ0
   40    43     1     0     0
SMALL
abcg2


@<TRIPOS>ATOM
      1 C2           7.6530    -0.6790    -2.5790 c          1 HJ0       0.665300
      2 C4           9.4470    -2.3070    -2.9420 cc         1 HJ0       0.382900
      3 C5           8.7960    -3.5570    -2.9580 cc         1 HJ0      -0.220000
      4 C6           9.8180    -4.4670    -3.1310 cd         1 HJ0      -0.127300
      5 C7           9.7880    -5.9500    -3.2230 c3         1 HJ0      -0.033800
      6 C11          8.1510     1.7590    -3.0690 cc         1 HJ0      -0.128100
      7 C15          4.5110     3.3030    -1.1740 ca         1 HJ0       0.181900
      8 C17          5.0410     1.0700    -1.2780 ca         1 HJ0       0.437900
      9 C19          6.2220     1.4170    -1.9790 ca         1 HJ0      -0.220800
     10 C21          8.8450     4.9240    -2.1060 c3         1 HJ0      -0.070100
     11 C23          8.6610     4.3620    -4.6350 cx         1 HJ0      -0.119400
     12 O1           6.7740    -1.5220    -2.4260 o          1 HJ0      -0.621100
     13 N3           8.9430    -1.0190    -2.8050 ns         1 HJ0      -0.464400
     14 N8          10.9490    -3.7480    -3.2050 na         1 HJ0      -0.003200
     15 N9          10.7510    -2.4340    -3.0930 nd         1 HJ0      -0.581800
     16 C10          7.3750     0.7610    -2.5320 cd         1 HJ0      -0.190400
     17 N12          7.5590     2.9680    -2.8850 na         1 HJ0      -0.147400
     18 C13          6.3900     2.7840    -2.2040 ca         1 HJ0       0.148500
     19 N14          5.5660     3.7590    -1.8180 nb         1 HJ0      -0.234000
     20 N16          4.2060     2.0420    -0.8910 nb         1 HJ0      -0.309000
     21 C20          8.1280     4.2400    -3.2420 cx         1 HJ0       0.027000
     22 C22          7.3850     5.0520    -4.2540 cx         1 HJ0      -0.119400
     23 H1           7.7500    -3.7760    -2.8540 ha         1 HJ0       0.168000
     24 H2          10.2140    -6.3020    -4.1630 hc         1 HJ0       0.053033
     25 H3          10.3520    -6.4130    -2.4120 hc         1 HJ0       0.053033
     26 H4           8.7620    -6.3070    -3.1640 hc         1 HJ0       0.053033
     27 H5           9.0830     1.6990    -3.6100 h4         1 HJ0       0.219000
     28 H6           3.7980     4.0460    -0.8310 h5         1 HJ0       0.043100
     29 H7           8.1670     5.1140    -1.2730 hc         1 HJ0       0.051367
     30 H8           9.6730     4.3140    -1.7430 hc         1 HJ0       0.051367
     31 H9           9.2500     5.8810    -2.4330 hc         1 HJ0       0.051367
     32 H10          8.5910     3.5060    -5.2930 hc         1 HJ0       0.084200
     33 H11          9.5560     4.9560    -4.7660 hc         1 HJ0       0.084200
     34 H12          9.6430    -0.2920    -2.8200 hn         1 HJ0       0.331500
     35 H13         11.8860    -4.0970    -3.3310 hn         1 HJ0       0.371000
     36 H14          3.8310    -0.3760    -0.5410 hn         1 HJ0       0.514500
     37 H15          5.2520    -0.9490    -1.3690 hn         1 HJ0       0.514500
     38 H16          7.3910     6.1260    -4.1250 hc         1 HJ0       0.084200
     39 H17          6.4610     4.6510    -4.6490 hc         1 HJ0       0.084200
     40 N18          4.7250    -0.1880    -0.9640 nv         1 HJ0      -1.063900
@<TRIPOS>BOND
     1     1    12 2   
     2     1    13 1   
     3     1    16 1   
     4     2     3 1   
     5     2    13 1   
     6     2    15 2   
     7     3     4 2   
     8     3    23 1   
     9     4     5 1   
    10     4    14 1   
    11     5    24 1   
    12     5    25 1   
    13     5    26 1   
    14     6    16 2   
    15     6    17 1   
    16     6    27 1   
    17     7    19 ar  
    18     7    20 ar  
    19     7    28 1   
    20     8     9 ar  
    21     8    20 ar  
    22     8    40 1   
    23     9    16 1   
    24     9    18 ar  
    25    10    21 1   
    26    10    29 1   
    27    10    30 1   
    28    10    31 1   
    29    11    21 1   
    30    11    22 1   
    31    11    32 1   
    32    11    33 1   
    33    13    34 1   
    34    14    15 1   
    35    14    35 1   
    36    17    18 1   
    37    17    21 1   
    38    18    19 ar  
    39    21    22 1   
    40    22    38 1   
    41    22    39 1   
    42    36    40 1   
    43    37    40 1   
@<TRIPOS>SUBSTRUCTURE
     1 HJ0         1 TEMP              0 ****  ****    0 ROOT
