@<TRIPOS>MOLECULE
HJ0
   40    43     1     0     0
SMALL
No Charge or Current Charge


@<TRIPOS>ATOM
      1 C2           7.6230    -0.7100    -2.4350 c          1 HJ0       0.665300
      2 C4           9.4460    -2.2610    -3.1090 cc         1 HJ0       0.382900
      3 C5           8.9080    -3.5180    -2.7910 cc         1 HJ0      -0.220000
      4 C6           9.8440    -4.4470    -3.1260 cd         1 HJ0      -0.127300
      5 C7           9.8160    -5.9480    -3.0080 c3         1 HJ0      -0.033800
      6 C11          8.2360     1.7150    -2.9580 cc         1 HJ0      -0.128100
      7 C15          4.2810     3.2430    -1.2950 ca         1 HJ0       0.181900
      8 C17          4.9610     1.0580    -1.3170 ca         1 HJ0       0.437900
      9 C19          6.1520     1.4630    -1.9470 ca         1 HJ0      -0.220800
     10 C21          8.9360     4.8250    -2.0590 c3         1 HJ0      -0.070100
     11 C23          8.7390     4.4250    -4.6290 cx         1 HJ0      -0.119400
     12 O1           6.8320    -1.5510    -2.0340 o          1 HJ0      -0.621100
     13 N3           8.8570    -1.0330    -2.9440 ns         1 HJ0      -0.464400
     14 N8          10.9130    -3.7000    -3.6340 na         1 HJ0      -0.003200
     15 N9          10.6540    -2.3250    -3.6200 nd         1 HJ0      -0.581800
     16 C10          7.3520     0.7710    -2.4360 cd         1 HJ0      -0.190400
     17 N12          7.5800     2.9480    -2.8040 na         1 HJ0      -0.147400
     18 C13          6.3360     2.8040    -2.2050 ca         1 HJ0       0.148500
     19 N14          5.4010     3.7210    -1.8830 nb         1 HJ0      -0.234000
     20 N16          4.0150     1.9500    -0.9930 nb         1 HJ0      -0.309000
     21 C20          8.1780     4.2180    -3.2380 cx         1 HJ0       0.027000
     22 C22          7.4930     5.1580    -4.2070 cx         1 HJ0      -0.119400
     23 H1           7.9330    -3.7110    -2.3620 ha         1 HJ0       0.168000
     24 H2           9.9300    -6.4220    -3.9900 hc         1 HJ0       0.053033
     25 H3          10.6260    -6.3080    -2.3630 hc         1 HJ0       0.053033
     26 H4           8.8680    -6.2940    -2.5790 hc         1 HJ0       0.053033
     27 H5           9.2170     1.6360    -3.4180 h4         1 HJ0       0.219000
     28 H6           3.5180     3.9730    -1.0330 h5         1 HJ0       0.043100
     29 H7           8.2610     5.0190    -1.2170 hc         1 HJ0       0.051367
     30 H8           9.7260     4.1500    -1.7100 hc         1 HJ0       0.051367
     31 H9           9.4090     5.7770    -2.3290 hc         1 HJ0       0.051367
     32 H10          8.6270     3.6160    -5.3480 hc         1 HJ0       0.084200
     33 H11          9.6570     4.9990    -4.7330 hc         1 HJ0       0.084200
     34 H12          9.4080    -0.2430    -3.2330 hn         1 HJ0       0.331500
     35 H13         11.7950    -4.0750    -3.9840 hn         1 HJ0       0.371000
     36 H14          3.7110    -0.4780    -0.8240 hn         1 HJ0       0.514500
     37 H15          5.3100    -0.9410    -1.3380 hn         1 HJ0       0.514500
     38 H16          7.5680     6.2270    -4.0230 hc         1 HJ0       0.084200
     39 H17          6.5480     4.8380    -4.6380 hc         1 HJ0       0.084200
     40 N18          4.6810    -0.2180    -0.9760 nv         1 HJ0      -1.063900
@<TRIPOS>BOND
     1     1    12 2   
     2     1    13 1   
     3     1    16 1   
     4     2     3 1   
     5     2    13 1   
     6     2    15 2   
     7     3     4 2   
     8     3    23 1   
     9     4     5 1   
    10     4    14 1   
    11     5    24 1   
    12     5    25 1   
    13     5    26 1   
    14     6    16 2   
    15     6    17 1   
    16     6    27 1   
    17     7    19 ar  
    18     7    20 ar  
    19     7    28 1   
    20     8     9 ar  
    21     8    20 ar  
    22     8    40 1   
    23     9    16 1   
    24     9    18 ar  
    25    10    21 1   
    26    10    29 1   
    27    10    30 1   
    28    10    31 1   
    29    11    21 1   
    30    11    22 1   
    31    11    32 1   
    32    11    33 1   
    33    13    34 1   
    34    14    15 1   
    35    14    35 1   
    36    17    18 1   
    37    17    21 1   
    38    18    19 ar  
    39    21    22 1   
    40    22    38 1   
    41    22    39 1   
    42    36    40 1   
    43    37    40 1   
@<TRIPOS>SUBSTRUCTURE
     1 HJ0         1 TEMP              0 ****  ****    0 ROOT
