@<TRIPOS>MOLECULE
HJ1
   32    32     1     0     0
SMALL
abcg2


@<TRIPOS>ATOM
      1 C02         -0.9550    -5.7470    -8.7480 c3         1 HJ1       0.158800
      2 C03         -2.1140    -4.9540    -8.1670 c3         1 HJ1      -0.156400
      3 C04         -3.4430    -5.2520    -8.8350 c          1 HJ1       0.596100
      4 C07         -4.5160    -3.3820    -7.5350 c3         1 HJ1       0.111000
      5 C08         -4.3340    -2.0400    -8.2620 c3         1 HJ1      -0.054100
      6 C09         -5.4260    -1.7690    -9.2640 ca         1 HJ1      -0.089300
      7 C10         -5.2440    -2.0200   -10.6210 ca         1 HJ1      -0.096000
      8 C11         -6.2790    -1.8170   -11.5320 ca         1 HJ1      -0.114000
      9 C12         -7.5120    -1.3590   -11.0970 ca         1 HJ1       0.120100
     10 C14         -7.7050    -1.0990    -9.7340 ca         1 HJ1       0.044100
     11 C16         -6.6720    -1.3050    -8.8340 ca         1 HJ1      -0.155000
     12 N01          0.2770    -5.4370    -8.0080 n8         1 HJ1      -1.007200
     13 N06         -4.5100    -4.5290    -8.4310 ns         1 HJ1      -0.509900
     14 O05         -3.5630    -6.1330    -9.6920 o          1 HJ1      -0.612100
     15 O13         -8.5230    -1.1620   -11.9960 oh         1 HJ1      -0.534100
     16 O15         -8.9470    -0.6400    -9.3830 oh         1 HJ1      -0.561100
     17 H1          -1.1520    -6.8160    -8.6470 h1         1 HJ1       0.046700
     18 H2          -0.8750    -5.5370    -9.8210 h1         1 HJ1       0.046700
     19 H3          -1.9040    -3.8840    -8.2460 hc         1 HJ1       0.062200
     20 H4          -2.2050    -5.1660    -7.0970 hc         1 HJ1       0.062200
     21 H5          -5.4720    -3.3840    -7.0100 h1         1 HJ1       0.052700
     22 H6          -3.7380    -3.5060    -6.7850 h1         1 HJ1       0.052700
     23 H7          -3.3640    -2.0350    -8.7620 hc         1 HJ1       0.054700
     24 H8          -4.3140    -1.2530    -7.5040 hc         1 HJ1       0.054700
     25 H9          -4.2870    -2.3810   -10.9760 ha         1 HJ1       0.121000
     26 H10         -6.1370    -2.0110   -12.5880 ha         1 HJ1       0.136000
     27 H11         -6.8440    -1.0990    -7.7820 ha         1 HJ1       0.110000
     28 H12          1.0460    -5.9790    -8.3870 hn         1 HJ1       0.393000
     29 H13          0.5250    -4.4630    -8.1550 hn         1 HJ1       0.393000
     30 H15         -5.3650    -4.7250    -8.9310 hn         1 HJ1       0.319500
     31 H16         -9.3050    -0.8430   -11.5230 ho         1 HJ1       0.480000
     32 H17         -8.9970    -0.4940    -8.4290 ho         1 HJ1       0.473000
@<TRIPOS>BOND
     1     1     2 1   
     2     1    12 1   
     3     1    17 1   
     4     1    18 1   
     5     2     3 1   
     6     2    19 1   
     7     2    20 1   
     8     3    13 1   
     9     3    14 2   
    10     4     5 1   
    11     4    13 1   
    12     4    21 1   
    13     4    22 1   
    14     5     6 1   
    15     5    23 1   
    16     5    24 1   
    17     6     7 ar  
    18     6    11 ar  
    19     7     8 ar  
    20     7    25 1   
    21     8     9 ar  
    22     8    26 1   
    23     9    10 ar  
    24     9    15 1   
    25    10    11 ar  
    26    10    16 1   
    27    11    27 1   
    28    12    28 1   
    29    12    29 1   
    30    13    30 1   
    31    15    31 1   
    32    16    32 1   
@<TRIPOS>SUBSTRUCTURE
     1 HJ1         1 TEMP              0 ****  ****    0 ROOT
