@<TRIPOS>MOLECULE
HJ1
   32    32     1     0     0
SMALL
No Charge or Current Charge


@<TRIPOS>ATOM
      1 C02         -1.1850    -5.7480    -8.3190 c3         1 HJ1       0.158800
      2 C03         -1.9080    -4.5240    -8.9010 c3         1 HJ1      -0.156400
      3 C04         -3.3110    -4.9220    -9.3870 c          1 HJ1       0.596100
      4 C07         -4.4910    -3.5860    -7.5610 c3         1 HJ1       0.111000
      5 C08         -4.4070    -2.1320    -8.0770 c3         1 HJ1      -0.054100
      6 C09         -5.4750    -1.8110    -9.1180 ca         1 HJ1      -0.089300
      7 C10         -5.1410    -1.7560   -10.4860 ca         1 HJ1      -0.096000
      8 C11         -6.1270    -1.4650   -11.4460 ca         1 HJ1      -0.114000
      9 C12         -7.4490    -1.2290   -11.0400 ca         1 HJ1       0.120100
     10 C14         -7.7910    -1.2820    -9.6730 ca         1 HJ1       0.044100
     11 C16         -6.8040    -1.5730    -8.7150 ca         1 HJ1      -0.155000
     12 N01          0.1650    -5.3870    -7.8430 n8         1 HJ1      -1.007200
     13 N06         -4.4180    -4.5820    -8.6380 ns         1 HJ1      -0.509900
     14 O05         -3.4660    -5.5630   -10.4150 o          1 HJ1      -0.612100
     15 O13         -8.4130    -0.9460   -11.9630 oh         1 HJ1      -0.534100
     16 O15         -9.0840    -1.0510    -9.2810 oh         1 HJ1      -0.561100
     17 H1          -1.7640    -6.1510    -7.4760 h1         1 HJ1       0.046700
     18 H2          -1.0990    -6.5320    -9.0860 h1         1 HJ1       0.046700
     19 H3          -1.3340    -4.1620    -9.7620 hc         1 HJ1       0.062200
     20 H4          -1.9390    -3.7480    -8.1320 hc         1 HJ1       0.062200
     21 H5          -5.4500    -3.7210    -7.0440 h1         1 HJ1       0.052700
     22 H6          -3.6990    -3.7740    -6.8250 h1         1 HJ1       0.052700
     23 H7          -3.4090    -1.9460    -8.4890 hc         1 HJ1       0.054700
     24 H8          -4.5070    -1.4530    -7.2210 hc         1 HJ1       0.054700
     25 H9          -4.1180    -1.9410   -10.8080 ha         1 HJ1       0.121000
     26 H10         -5.8660    -1.4240   -12.5000 ha         1 HJ1       0.136000
     27 H11         -7.0630    -1.6160    -7.6600 ha         1 HJ1       0.110000
     28 H12          0.6400    -6.2350    -7.5080 hn         1 HJ1       0.393000
     29 H13          0.7360    -5.0940    -8.6450 hn         1 HJ1       0.393000
     30 H15         -5.2960    -4.9200    -9.0120 hn         1 HJ1       0.319500
     31 H16         -9.2440    -0.8210   -11.4500 ho         1 HJ1       0.480000
     32 H17         -9.1360    -1.1260    -8.3020 ho         1 HJ1       0.473000
@<TRIPOS>BOND
     1     1     2 1   
     2     1    12 1   
     3     1    17 1   
     4     1    18 1   
     5     2     3 1   
     6     2    19 1   
     7     2    20 1   
     8     3    13 1   
     9     3    14 2   
    10     4     5 1   
    11     4    13 1   
    12     4    21 1   
    13     4    22 1   
    14     5     6 1   
    15     5    23 1   
    16     5    24 1   
    17     6     7 ar  
    18     6    11 ar  
    19     7     8 ar  
    20     7    25 1   
    21     8     9 ar  
    22     8    26 1   
    23     9    10 ar  
    24     9    15 1   
    25    10    11 ar  
    26    10    16 1   
    27    11    27 1   
    28    12    28 1   
    29    12    29 1   
    30    13    30 1   
    31    15    31 1   
    32    16    32 1   
@<TRIPOS>SUBSTRUCTURE
     1 HJ1         1 TEMP              0 ****  ****    0 ROOT
