@<TRIPOS>MOLECULE
HJ2
   46    46     1     0     0
SMALL
No Charge or Current Charge


@<TRIPOS>ATOM
      1 C7           1.7000    -0.6820     1.8350 c3         1 HJ2      -0.043300
      2 H7           1.9520    -1.7420     1.9630 h1         1 HJ2       0.074700
      3 C6           2.2610    -0.2610     0.4430 c6         1 HJ2       0.415500
      4 S1           1.8280     1.4610    -0.0000 ss         1 HJ2      -0.579000
      5 C2           2.5910     1.4040    -1.6660 c6         1 HJ2       0.139800
      6 N5           3.7100    -0.3790     0.3600 nu         1 HJ2      -0.763200
      7 C4           4.5160     0.0460    -0.7400 ce         1 HJ2       0.080800
      8 C13          5.9620    -0.5370    -0.6980 c          1 HJ2       0.713200
      9 O14          6.2500    -1.2750     0.2410 o          1 HJ2      -0.727000
     10 O15          6.7820    -0.2610    -1.5650 o          1 HJ2      -0.727000
     11 C3           4.0150     0.8600    -1.7230 c2         1 HJ2      -0.291400
     12 N2           0.2150    -0.5810     1.9300 ns         1 HJ2      -0.462900
     13 H6           1.7970    -0.9000    -0.3240 h2         1 HJ2       0.036700
     14 H2           1.9440     0.7820    -2.3010 h1         1 HJ2       0.022700
     15 HN5          4.1950    -0.9390     1.0670 hn         1 HJ2       0.542000
     16 C81          4.7720     1.3370    -2.9550 c3         1 HJ2       0.018100
     17 H4           2.5580     2.4280    -2.0660 h1         1 HJ2       0.022700
     18 H5          -0.1690     0.1320     2.5390 hn         1 HJ2       0.302500
     19 C9          -0.6790    -1.3130     1.1840 c          1 HJ2       0.601100
     20 C10         -2.1550    -0.9690     1.4210 c3         1 HJ2      -0.159400
     21 O5          -0.3220    -2.1990     0.4200 o          1 HJ2      -0.631100
     22 C11         -2.7530    -0.1900     0.2270 c3         1 HJ2      -0.067400
     23 H61         -2.7190    -1.9020     1.5450 hc         1 HJ2       0.043700
     24 H71         -2.2560    -0.3510     2.3220 hc         1 HJ2       0.043700
     25 C12         -4.2400     0.1780     0.4290 c3         1 HJ2      -0.074400
     26 H8          -2.1710     0.7270     0.0690 hc         1 HJ2       0.042700
     27 H9          -2.6520    -0.7930    -0.6850 hc         1 HJ2       0.042700
     28 C131        -4.8400     0.9570    -0.7680 c3         1 HJ2      -0.052400
     29 H10         -4.8140    -0.7420     0.5930 hc         1 HJ2       0.028700
     30 H11         -4.3400     0.7840     1.3380 hc         1 HJ2       0.028700
     31 C14         -6.3180     1.3980    -0.5780 c3         1 HJ2       0.014500
     32 H12         -4.2320     1.8560    -0.9310 hc         1 HJ2       0.037700
     33 H13         -4.7530     0.3540    -1.6800 hc         1 HJ2       0.037700
     34 C15         -6.7120     2.4810    -1.6670 c          1 HJ2       0.691000
     35 N3          -7.2330     0.2010    -0.4780 n8         1 HJ2      -0.990200
     36 H14         -6.3750     1.9120     0.3920 h1         1 HJ2       0.034700
     37 O6          -6.8890     3.6350    -1.3010 o          1 HJ2      -0.747500
     38 O7          -6.9380     2.1050    -2.8110 o          1 HJ2      -0.747500
     39 H15          4.1310     1.9040    -3.6420 hc         1 HJ2       0.006033
     40 H16          5.6060     1.9920    -2.6770 hc         1 HJ2       0.006033
     41 H17          5.1710     0.4920    -3.5280 hc         1 HJ2       0.006033
     42 H18         -8.1900     0.5270    -0.3020 hn         1 HJ2       0.372500
     43 H19         -7.2990    -0.2290    -1.4080 hn         1 HJ2       0.372500
     44 C8           2.3910     0.0610     3.0100 c          1 HJ2       0.723000
     45 O4           3.4180    -0.4320     3.4590 o          1 HJ2      -0.720000
     46 O9           1.7890     0.9660     3.5780 o          1 HJ2      -0.720000
@<TRIPOS>BOND
     1     1     2 1   
     2     1     3 1   
     3     1    12 1   
     4     1    44 1   
     5     3     4 1   
     6     3     6 1   
     7     3    13 1   
     8     4     5 1   
     9     5    11 1   
    10     5    14 1   
    11     5    17 1   
    12     6     7 1   
    13     6    15 1   
    14     7     8 1   
    15     7    11 2   
    16     8     9 1   
    17     8    10 1   
    18    11    16 1   
    19    12    18 1   
    20    12    19 1   
    21    16    39 1   
    22    16    40 1   
    23    16    41 1   
    24    19    20 1   
    25    19    21 2   
    26    20    22 1   
    27    20    23 1   
    28    20    24 1   
    29    22    25 1   
    30    22    26 1   
    31    22    27 1   
    32    25    28 1   
    33    25    29 1   
    34    25    30 1   
    35    28    31 1   
    36    28    32 1   
    37    28    33 1   
    38    31    34 1   
    39    31    35 1   
    40    31    36 1   
    41    34    37 1   
    42    34    38 1   
    43    35    42 1   
    44    35    43 1   
    45    44    45 1   
    46    44    46 1   
@<TRIPOS>SUBSTRUCTURE
     1 HJ2         1 TEMP              0 ****  ****    0 ROOT
