@<TRIPOS>MOLECULE
HJ2
   46    46     1     0     0
SMALL
abcg2


@<TRIPOS>ATOM
      1 C7           1.5020    -0.8970     0.3320 c3         1 HJ2      -0.043300
      2 H7           1.4310    -1.7260    -0.3780 h1         1 HJ2       0.074700
      3 C6           2.6090     0.0200    -0.1830 c6         1 HJ2       0.415500
      4 S1           2.8930     1.4230     0.9990 ss         1 HJ2      -0.579000
      5 C2           4.0080     2.2450    -0.1630 c6         1 HJ2       0.139800
      6 N5           3.8060    -0.6810    -0.4440 nu         1 HJ2      -0.763200
      7 C4           4.9750     0.0010    -0.7600 ce         1 HJ2       0.080800
      8 C13          6.1260    -0.9580    -1.0720 c          1 HJ2       0.713200
      9 O14          5.9060    -2.1550    -0.7980 o          1 HJ2      -0.727000
     10 O15          7.1850    -0.4930    -1.5320 o          1 HJ2      -0.727000
     11 C3           5.0680     1.3500    -0.7540 c2         1 HJ2      -0.291400
     12 N2           0.2620    -0.1640     0.3140 ns         1 HJ2      -0.462900
     13 H6           2.2670     0.5090    -1.1030 h2         1 HJ2       0.036700
     14 H2           3.4210     2.7500    -0.9380 h1         1 HJ2       0.022700
     15 HN5          3.9430    -1.5180     0.1060 hn         1 HJ2       0.542000
     16 C81          6.2320     2.1500    -1.2790 c3         1 HJ2       0.018100
     17 H4           4.5000     3.0390     0.4070 h1         1 HJ2       0.022700
     18 H5           0.3090     0.8400     0.4050 hn         1 HJ2       0.302500
     19 C9          -0.9180    -0.7660     0.5290 c          1 HJ2       0.601100
     20 C10         -2.1020     0.1660     0.6700 c3         1 HJ2      -0.159400
     21 O5          -1.0330    -1.9840     0.5890 o          1 HJ2      -0.631100
     22 C11         -3.3730    -0.3880     0.0390 c3         1 HJ2      -0.067400
     23 H61         -2.2650     0.3330     1.7410 hc         1 HJ2       0.043700
     24 H71         -1.8680     1.1450     0.2430 hc         1 HJ2       0.043700
     25 C12         -4.5370     0.5920     0.1150 c3         1 HJ2      -0.074400
     26 H8          -3.1790    -0.6360    -1.0100 hc         1 HJ2       0.042700
     27 H9          -3.6500    -1.3240     0.5300 hc         1 HJ2       0.042700
     28 C131        -5.8050     0.0340    -0.5160 c3         1 HJ2      -0.052400
     29 H10         -4.7300     0.8590     1.1570 hc         1 HJ2       0.028700
     30 H11         -4.2610     1.5240    -0.3920 hc         1 HJ2       0.028700
     31 C14         -6.9820     1.0120    -0.5370 c3         1 HJ2       0.014500
     32 H12         -5.5930    -0.2680    -1.5440 hc         1 HJ2       0.037700
     33 H13         -6.1030    -0.8790     0.0160 hc         1 HJ2       0.037700
     34 C15         -8.1510     0.4010    -1.3510 c          1 HJ2       0.691000
     35 N3          -7.3150     1.4230     0.8190 n8         1 HJ2      -0.990200
     36 H14         -6.6470     1.9080    -1.0760 h1         1 HJ2       0.034700
     37 O6          -7.9290     0.2050    -2.5650 o          1 HJ2      -0.747500
     38 O7          -9.2080     0.1430    -0.7430 o          1 HJ2      -0.747500
     39 H15          5.8990     3.1640    -1.5150 hc         1 HJ2       0.006033
     40 H16          7.0330     2.2500    -0.5400 hc         1 HJ2       0.006033
     41 H17          6.6730     1.7240    -2.1730 hc         1 HJ2       0.006033
     42 H18         -8.0620     2.1070     0.7740 hn         1 HJ2       0.372500
     43 H19         -7.7350     0.6300     1.2910 hn         1 HJ2       0.372500
     44 C8           1.8650    -1.4680     1.7290 c          1 HJ2       0.723000
     45 O4           2.7310    -2.3690     1.7180 o          1 HJ2      -0.720000
     46 O9           1.3040    -0.9700     2.7140 o          1 HJ2      -0.720000
@<TRIPOS>BOND
     1     1     2 1   
     2     1     3 1   
     3     1    12 1   
     4     1    44 1   
     5     3     4 1   
     6     3     6 1   
     7     3    13 1   
     8     4     5 1   
     9     5    11 1   
    10     5    14 1   
    11     5    17 1   
    12     6     7 1   
    13     6    15 1   
    14     7     8 1   
    15     7    11 2   
    16     8     9 1   
    17     8    10 1   
    18    11    16 1   
    19    12    18 1   
    20    12    19 1   
    21    16    39 1   
    22    16    40 1   
    23    16    41 1   
    24    19    20 1   
    25    19    21 2   
    26    20    22 1   
    27    20    23 1   
    28    20    24 1   
    29    22    25 1   
    30    22    26 1   
    31    22    27 1   
    32    25    28 1   
    33    25    29 1   
    34    25    30 1   
    35    28    31 1   
    36    28    32 1   
    37    28    33 1   
    38    31    34 1   
    39    31    35 1   
    40    31    36 1   
    41    34    37 1   
    42    34    38 1   
    43    35    42 1   
    44    35    43 1   
    45    44    45 1   
    46    44    46 1   
@<TRIPOS>SUBSTRUCTURE
     1 HJ2         1 TEMP              0 ****  ****    0 ROOT
