@<TRIPOS>MOLECULE
HJ3
   48    48     1     0     0
SMALL
No Charge or Current Charge


@<TRIPOS>ATOM
      1 O11          0.2110    -0.4190     2.4970 o          1 HJ3      -0.620100
      2 C10          0.5560    -1.2880     1.7090 c          1 HJ3       0.607100
      3 CA1          2.0090    -1.4660     1.2570 c3         1 HJ3      -0.153400
      4 CB1          2.4240    -0.3760     0.2400 c3         1 HJ3      -0.067400
      5 N9          -0.3340    -2.2020     1.1950 ns         1 HJ3      -0.486900
      6 C6          -1.8030    -2.2060     1.4480 c3         1 HJ3      -0.014300
      7 C7          -2.4440    -3.4810     0.8600 c          1 HJ3       0.572900
      8 O8          -1.8190    -4.3490     0.2540 o          1 HJ3      -0.524100
      9 C5          -2.5310    -0.9180     0.9730 c5         1 HJ3       0.373500
     10 S1          -2.5440    -0.7670    -0.8590 ss         1 HJ3      -0.621000
     11 N4          -3.9850    -0.9300     1.1920 n7         1 HJ3      -0.812400
     12 C3          -4.4990     0.3910     0.6470 c5         1 HJ3       0.032500
     13 C12         -4.3590     1.6780     1.5710 c          1 HJ3       0.735000
     14 O14         -5.2690     2.4970     1.5670 o          1 HJ3      -0.715500
     15 O13         -3.4170     1.7820     2.3490 o          1 HJ3      -0.715500
     16 C2          -3.7990     0.6030    -0.7570 c5         1 HJ3       0.129000
     17 C16         -4.7960     0.4150    -1.9270 c3         1 HJ3      -0.069600
     18 C15         -3.0450     1.9450    -0.9610 c3         1 HJ3      -0.069600
     19 HA1          2.6620    -1.3900     2.1340 hc         1 HJ3       0.053700
     20 HA1A         2.1350    -2.4470     0.7830 hc         1 HJ3       0.053700
     21 C121         3.8820    -0.5280    -0.2460 c3         1 HJ3      -0.076400
     22 HB1          1.7480    -0.4150    -0.6240 hc         1 HJ3       0.047700
     23 HB1A         2.2980     0.6130     0.6990 hc         1 HJ3       0.047700
     24 HN9          0.0430    -2.8920     0.5530 hn         1 HJ3       0.323500
     25 H6          -1.9570    -2.2710     2.5320 h1         1 HJ3       0.106700
     26 H7          -3.5370    -3.5940     1.0340 h4         1 HJ3      -0.023800
     27 H5          -2.0490    -0.0390     1.4290 h2         1 HJ3       0.143700
     28 HN4         -4.3630    -1.6730     0.6000 hn         1 HJ3       0.380000
     29 H3          -5.5830     0.2870     0.4980 h1         1 HJ3       0.054700
     30 H16         -5.3030    -0.5550    -1.8650 hc         1 HJ3       0.033367
     31 H16A        -5.5690     1.1940    -1.9160 hc         1 HJ3       0.033367
     32 H16B        -4.2900     0.4610    -2.8990 hc         1 HJ3       0.033367
     33 H15         -2.5520     1.9770    -1.9400 hc         1 HJ3       0.033367
     34 H15A        -3.7280     2.8020    -0.9130 hc         1 HJ3       0.033367
     35 H15B        -2.2650     2.0900    -0.2040 hc         1 HJ3       0.033367
     36 C13          4.2980     0.5630    -1.2650 c3         1 HJ3      -0.050400
     37 H18          4.5510    -0.4930     0.6220 hc         1 HJ3       0.033700
     38 H19          4.0070    -1.5150    -0.7080 hc         1 HJ3       0.033700
     39 H20          3.5970     0.5290    -2.1080 hc         1 HJ3       0.038700
     40 H21          4.1860     1.5540    -0.8080 hc         1 HJ3       0.038700
     41 C14          5.7400     0.4090    -1.8240 c3         1 HJ3       0.014500
     42 N3           6.7660     0.5740    -0.7290 n8         1 HJ3      -0.998200
     43 H22          5.8340    -0.6260    -2.1830 h1         1 HJ3       0.035700
     44 C151         5.9330     1.3300    -3.1000 c          1 HJ3       0.691000
     45 O6           6.0980     2.5320    -2.9340 o          1 HJ3      -0.740500
     46 H24          7.7020     0.4150    -1.1230 hn         1 HJ3       0.377500
     47 H25          6.7920     1.5660    -0.4620 hn         1 HJ3       0.377500
     48 O5           6.0260     0.7910    -4.1950 o          1 HJ3      -0.740500
@<TRIPOS>BOND
     1     1     2 2   
     2     2     3 1   
     3     2     5 1   
     4     3     4 1   
     5     3    19 1   
     6     3    20 1   
     7     4    21 1   
     8     4    22 1   
     9     4    23 1   
    10     5     6 1   
    11     5    24 1   
    12     6     7 1   
    13     6     9 1   
    14     6    25 1   
    15     7     8 2   
    16     7    26 1   
    17     9    10 1   
    18     9    11 1   
    19     9    27 1   
    20    10    16 1   
    21    11    12 1   
    22    11    28 1   
    23    12    13 1   
    24    12    16 1   
    25    12    29 1   
    26    13    14 1   
    27    13    15 1   
    28    16    17 1   
    29    16    18 1   
    30    17    30 1   
    31    17    31 1   
    32    17    32 1   
    33    18    33 1   
    34    18    34 1   
    35    18    35 1   
    36    21    36 1   
    37    21    37 1   
    38    21    38 1   
    39    36    39 1   
    40    36    40 1   
    41    36    41 1   
    42    41    42 1   
    43    41    43 1   
    44    41    44 1   
    45    42    46 1   
    46    42    47 1   
    47    44    45 1   
    48    44    48 1   
@<TRIPOS>SUBSTRUCTURE
     1 HJ3         1 TEMP              0 ****  ****    0 ROOT
