@<TRIPOS>MOLECULE
HJ3
   48    48     1     0     0
SMALL
bcc


@<TRIPOS>ATOM
      1 O11          0.9110    -0.7140     1.9890 o          1 HJ3      -0.620100
      2 C10          0.8070    -0.6170     0.7760 c          1 HJ3       0.674100
      3 CA1          1.9960    -0.6850    -0.1550 c3         1 HJ3      -0.153400
      4 CB1          3.2550    -0.0570     0.4290 c3         1 HJ3      -0.067400
      5 N9          -0.3850    -0.4390     0.1670 ns         1 HJ3      -0.553900
      6 C6          -1.6290    -0.5320     0.8760 c3         1 HJ3      -0.014300
      7 C7          -2.0450    -1.9770     1.0830 c          1 HJ3       0.572900
      8 O8          -1.3290    -2.9190     0.8710 o          1 HJ3      -0.524100
      9 C5          -2.7240     0.2580     0.1650 c5         1 HJ3       0.325600
     10 S1          -3.3770    -0.6990    -1.3000 ss         1 HJ3      -0.525200
     11 N4          -3.8430     0.5510     1.0100 n7         1 HJ3      -0.757200
     12 C3          -5.0530     0.7360     0.2250 c5         1 HJ3       0.032500
     13 C12         -5.1420     2.1450    -0.3970 c          1 HJ3       0.945600
     14 O14         -6.2850     2.6390    -0.4490 o          1 HJ3      -0.820800
     15 O13         -4.0850     2.6660    -0.8000 o          1 HJ3      -0.820800
     16 C2          -5.1330    -0.4040    -0.8400 c5         1 HJ3       0.081100
     17 C16         -5.7140    -1.6680    -0.2110 c3         1 HJ3      -0.069600
     18 C15         -5.9300    -0.0440    -2.0870 c3         1 HJ3      -0.069600
     19 HA1          2.1780    -1.7440    -0.3670 hc         1 HJ3       0.053700
     20 HA1A         1.7540    -0.2220    -1.1150 hc         1 HJ3       0.053700
     21 C121         4.4460    -0.1760    -0.5140 c3         1 HJ3      -0.076400
     22 HB1          3.0650     0.9980     0.6490 hc         1 HJ3       0.047700
     23 HB1A         3.4970    -0.5330     1.3820 hc         1 HJ3       0.047700
     24 HN9         -0.4130    -0.4630    -0.8410 hn         1 HJ3       0.323500
     25 H6          -1.4970    -0.0910     1.8730 h1         1 HJ3       0.106700
     26 H7          -3.0590    -2.1170     1.4940 h4         1 HJ3      -0.023800
     27 H5          -2.3040     1.1820    -0.2250 h2         1 HJ3       0.143700
     28 HN4         -3.9970    -0.1880     1.6860 hn         1 HJ3       0.324800
     29 H3          -5.9030     0.6130     0.9020 h1         1 HJ3       0.054700
     30 H16         -5.1900    -1.9530     0.7020 hc         1 HJ3       0.033367
     31 H16A        -6.7650    -1.5130     0.0440 hc         1 HJ3       0.033367
     32 H16B        -5.6570    -2.5130    -0.8990 hc         1 HJ3       0.033367
     33 H15         -5.9640    -0.8880    -2.7770 hc         1 HJ3       0.033367
     34 H15A        -6.9570     0.2080    -1.8200 hc         1 HJ3       0.033367
     35 H15B        -5.4960     0.8030    -2.6170 hc         1 HJ3       0.033367
     36 C13          5.7040     0.4700     0.0480 c3         1 HJ3      -0.050400
     37 H18          4.6440    -1.2300    -0.7230 hc         1 HJ3       0.033700
     38 H19          4.2010     0.2880    -1.4760 hc         1 HJ3       0.033700
     39 H20          5.5280     1.5380     0.1980 hc         1 HJ3       0.038700
     40 H21          5.9170     0.0510     1.0400 hc         1 HJ3       0.038700
     41 C14          6.9400     0.2950    -0.8400 c3         1 HJ3       0.014500
     42 N3           7.2560    -1.1200    -0.9730 n8         1 HJ3      -0.887800
     43 H22          6.6810     0.6690    -1.8380 h1         1 HJ3       0.035700
     44 C151         8.0880     1.1800    -0.2970 c          1 HJ3       0.901600
     45 O6           9.0530     0.6070     0.2480 o          1 HJ3      -0.845800
     46 H24          7.9860    -1.2280    -1.6680 hn         1 HJ3       0.322300
     47 H25          7.6890    -1.4200    -0.1070 hn         1 HJ3       0.322300
     48 O5           7.9380     2.4130    -0.4290 o          1 HJ3      -0.845800
@<TRIPOS>BOND
     1     1     2 2   
     2     2     3 1   
     3     2     5 1   
     4     3     4 1   
     5     3    19 1   
     6     3    20 1   
     7     4    21 1   
     8     4    22 1   
     9     4    23 1   
    10     5     6 1   
    11     5    24 1   
    12     6     7 1   
    13     6     9 1   
    14     6    25 1   
    15     7     8 2   
    16     7    26 1   
    17     9    10 1   
    18     9    11 1   
    19     9    27 1   
    20    10    16 1   
    21    11    12 1   
    22    11    28 1   
    23    12    13 1   
    24    12    16 1   
    25    12    29 1   
    26    13    14 1   
    27    13    15 1   
    28    16    17 1   
    29    16    18 1   
    30    17    30 1   
    31    17    31 1   
    32    17    32 1   
    33    18    33 1   
    34    18    34 1   
    35    18    35 1   
    36    21    36 1   
    37    21    37 1   
    38    21    38 1   
    39    36    39 1   
    40    36    40 1   
    41    36    41 1   
    42    41    42 1   
    43    41    43 1   
    44    41    44 1   
    45    42    46 1   
    46    42    47 1   
    47    44    45 1   
    48    44    48 1   
@<TRIPOS>SUBSTRUCTURE
     1 HJ3         1 TEMP              0 ****  ****    0 ROOT
