@<TRIPOS>MOLECULE
HJ4
   76    80     1     0     0
SMALL
No Charge or Current Charge


@<TRIPOS>ATOM
      1 C2          -1.8360     4.9190     1.0660 c          1 HJ4       0.576300
      2 C3          -1.5270     3.8050     2.0630 c6         1 HJ4      -0.180400
      3 C4          -1.7810     2.4060     1.4620 c6         1 HJ4      -0.026200
      4 C5          -1.0210     2.2090     0.1250 ce         1 HJ4      -0.112200
      5 C6          -0.3930     1.0480    -0.2440 c2         1 HJ4      -0.058400
      6 C7          -0.3520    -0.2150     0.6650 c6         1 HJ4       0.029800
      7 C11         -3.0610    -2.7300     1.7540 ca         1 HJ4      -0.185000
      8 C12         -4.1080    -2.4850     0.8440 ca         1 HJ4       0.326000
      9 N13         -5.3180    -3.2250     0.9130 nh         1 HJ4      -0.818400
     10 C15         -5.3530    -4.6020     1.4590 c3         1 HJ4       0.211100
     11 C16         -3.9270    -1.4860    -0.1310 ca         1 HJ4      -0.185000
     12 C17         -2.7300    -0.7530    -0.2020 ca         1 HJ4      -0.068000
     13 C18          0.9160    -1.1130     0.4750 c6         1 HJ4      -0.053400
     14 C19          1.3030    -1.3710    -1.0120 c5         1 HJ4      -0.020000
     15 C21          1.4730     0.0130    -1.6980 c5         1 HJ4      -0.068700
     16 C23          2.9900    -1.6030    -2.7810 c5         1 HJ4      -0.102400
     17 C24          2.7630    -1.9500    -1.2650 c5         1 HJ4       0.273100
     18 C27          5.6570    -0.1490     1.1230 c3         1 HJ4       0.036100
     19 C30          4.9340     0.9620     1.9260 c3         1 HJ4      -0.081433
     20 C32          0.1900     0.8860    -1.6720 c6         1 HJ4      -0.015500
     21 C33          0.4510     2.2520    -2.3520 c6         1 HJ4      -0.071400
     22 C34         -0.7880     3.1510    -2.2370 c6         1 HJ4      -0.051200
     23 C35         -1.1300     3.3880    -0.7690 ce         1 HJ4       0.002800
     24 C36         -1.5280     4.6200    -0.3470 cf         1 HJ4      -0.317200
     25 O1          -2.3240     5.9870     1.4130 o          1 HJ4      -0.533100
     26 C9          -1.6760    -1.0100     0.7010 ca         1 HJ4      -0.122300
     27 C10         -1.8630    -1.9990     1.6870 ca         1 HJ4      -0.068000
     28 C14         -6.6010    -2.6550     0.4390 c3         1 HJ4       0.211100
     29 C20          0.2020    -2.2930    -1.6530 c3         1 HJ4      -0.076100
     30 C22          2.0580    -0.3770    -3.0880 c5         1 HJ4      -0.064400
     31 C25          3.8360    -1.3670    -0.4230 c1         1 HJ4      -0.180100
     32 C26          4.6740    -0.8360     0.2690 c1         1 HJ4      -0.111100
     33 C28          6.7550     0.4780     0.2270 c3         1 HJ4      -0.081433
     34 C29          6.2920    -1.1750     2.0950 c3         1 HJ4      -0.081433
     35 O31          2.8440    -3.3490    -1.0380 oh         1 HJ4      -0.640000
     36 H1          -0.4490     3.8620     2.2590 hc         1 HJ4       0.069200
     37 H2          -2.0560     3.9770     3.0100 hc         1 HJ4       0.069200
     38 H3          -1.5330     1.6580     2.2210 hc         1 HJ4       0.055700
     39 H4          -2.8570     2.2840     1.2730 hc         1 HJ4       0.055700
     40 H5          -0.2130     0.1450     1.6910 hc         1 HJ4       0.056700
     41 H6          -3.1730    -3.4790     2.5310 ha         1 HJ4       0.111000
     42 H7          -5.4420    -4.5800     2.5540 h1         1 HJ4       0.034867
     43 H8          -6.2050    -5.1620     1.0520 h1         1 HJ4       0.034867
     44 H9          -4.4390    -5.1480     1.1890 h1         1 HJ4       0.034867
     45 H10         -4.7110    -1.2750    -0.8520 ha         1 HJ4       0.111000
     46 H11         -2.6340     0.0090    -0.9710 ha         1 HJ4       0.109000
     47 H12          1.7400    -0.5950     0.9830 hc         1 HJ4       0.052700
     48 H13          0.8120    -2.0670     1.0070 hc         1 HJ4       0.052700
     49 H14          2.2060     0.6240    -1.1560 hc         1 HJ4       0.059700
     50 H15          4.0400    -1.3750    -3.0020 hc         1 HJ4       0.052700
     51 H16          2.7270    -2.4470    -3.4290 hc         1 HJ4       0.052700
     52 H17          4.1460     0.5390     2.5620 hc         1 HJ4       0.039033
     53 H18          5.6390     1.4970     2.5730 hc         1 HJ4       0.039033
     54 H19          4.4690     1.6950     1.2550 hc         1 HJ4       0.039033
     55 H20         -0.5760     0.3780    -2.2730 hc         1 HJ4       0.065700
     56 H21          1.3100     2.7530    -1.8830 hc         1 HJ4       0.048700
     57 H22          0.7050     2.1110    -3.4120 hc         1 HJ4       0.048700
     58 H23         -0.5960     4.1050    -2.7480 hc         1 HJ4       0.056200
     59 H24         -1.6430     2.6880    -2.7470 hc         1 HJ4       0.056200
     60 H25         -1.6350     5.4400    -1.0540 ha         1 HJ4       0.195000
     61 H26         -1.0790    -2.2010     2.4140 ha         1 HJ4       0.109000
     62 H27         -6.7080    -2.7960    -0.6450 h1         1 HJ4       0.034867
     63 H28         -7.4520    -3.1390     0.9390 h1         1 HJ4       0.034867
     64 H29         -6.6530    -1.5810     0.6630 h1         1 HJ4       0.034867
     65 H30         -0.7720    -1.8030    -1.7260 hc         1 HJ4       0.040367
     66 H31          0.4570    -2.6200    -2.6660 hc         1 HJ4       0.040367
     67 H32          0.0580    -3.2020    -1.0580 hc         1 HJ4       0.040367
     68 H33          1.2670    -0.6500    -3.7970 hc         1 HJ4       0.044700
     69 H34          2.6140     0.4510    -3.5410 hc         1 HJ4       0.044700
     70 H35          6.3240     1.2040    -0.4750 hc         1 HJ4       0.039033
     71 H36          7.5020     1.0010     0.8360 hc         1 HJ4       0.039033
     72 H37          7.2750    -0.2910    -0.3580 hc         1 HJ4       0.039033
     73 H38          6.8030    -1.9750     1.5460 hc         1 HJ4       0.039033
     74 H39          7.0290    -0.6900     2.7470 hc         1 HJ4       0.039033
     75 H40          5.5290    -1.6360     2.7350 hc         1 HJ4       0.039033
     76 H41          3.7900    -3.5250    -0.8500 ho         1 HJ4       0.448000
@<TRIPOS>BOND
     1     1     2 1   
     2     1    24 1   
     3     1    25 2   
     4     2     3 1   
     5     2    36 1   
     6     2    37 1   
     7     3     4 1   
     8     3    38 1   
     9     3    39 1   
    10     4     5 2   
    11     4    23 1   
    12     5     6 1   
    13     5    20 1   
    14     6    13 1   
    15     6    26 1   
    16     6    40 1   
    17     7     8 ar  
    18     7    27 ar  
    19     7    41 1   
    20     8     9 1   
    21     8    11 ar  
    22     9    10 1   
    23     9    28 1   
    24    10    42 1   
    25    10    43 1   
    26    10    44 1   
    27    11    12 ar  
    28    11    45 1   
    29    12    26 ar  
    30    12    46 1   
    31    13    14 1   
    32    13    47 1   
    33    13    48 1   
    34    14    15 1   
    35    14    17 1   
    36    14    29 1   
    37    15    20 1   
    38    15    30 1   
    39    15    49 1   
    40    16    17 1   
    41    16    30 1   
    42    16    50 1   
    43    16    51 1   
    44    17    31 1   
    45    17    35 1   
    46    18    19 1   
    47    18    32 1   
    48    18    33 1   
    49    18    34 1   
    50    19    52 1   
    51    19    53 1   
    52    19    54 1   
    53    20    21 1   
    54    20    55 1   
    55    21    22 1   
    56    21    56 1   
    57    21    57 1   
    58    22    23 1   
    59    22    58 1   
    60    22    59 1   
    61    23    24 2   
    62    24    60 1   
    63    26    27 ar  
    64    27    61 1   
    65    28    62 1   
    66    28    63 1   
    67    28    64 1   
    68    29    65 1   
    69    29    66 1   
    70    29    67 1   
    71    30    68 1   
    72    30    69 1   
    73    31    32 3   
    74    33    70 1   
    75    33    71 1   
    76    33    72 1   
    77    34    73 1   
    78    34    74 1   
    79    34    75 1   
    80    35    76 1   
@<TRIPOS>SUBSTRUCTURE
     1 HJ4         1 TEMP              0 ****  ****    0 ROOT
