@<TRIPOS>MOLECULE
HJ4
   76    80     1     0     0
SMALL
bcc


@<TRIPOS>ATOM
      1 C2          -1.1690     4.8830     1.3480 c          1 HJ4       0.576300
      2 C3          -0.7480     3.7790     2.2810 c6         1 HJ4      -0.180400
      3 C4          -1.2360     2.4130     1.8120 c6         1 HJ4      -0.026200
      4 C5          -0.8320     2.1410     0.3870 ce         1 HJ4      -0.112200
      5 C6          -0.4180     0.9430    -0.0830 c2         1 HJ4      -0.058400
      6 C7          -0.3780    -0.2860     0.8050 c6         1 HJ4       0.029800
      7 C11         -3.0090    -2.9890     1.4280 ca         1 HJ4      -0.203000
      8 C12         -4.1260    -2.5620     0.6870 ca         1 HJ4       0.187600
      9 N13         -5.3030    -3.2730     0.6790 nh         1 HJ4      -0.680000
     10 C15         -5.3250    -4.6050     1.2360 c3         1 HJ4       0.211100
     11 C16         -3.9780    -1.3650    -0.0320 ca         1 HJ4      -0.203000
     12 C17         -2.7930    -0.6460     0.0030 ca         1 HJ4      -0.086000
     13 C18          0.8970    -1.1330     0.5890 c6         1 HJ4      -0.053400
     14 C19          1.2090    -1.3960    -0.8760 c5         1 HJ4      -0.020000
     15 C21          1.2720    -0.0500    -1.5970 c5         1 HJ4      -0.068700
     16 C23          2.7990    -1.5750    -2.6990 c5         1 HJ4      -0.102400
     17 C24          2.6360    -1.9280    -1.1900 c5         1 HJ4       0.249900
     18 C27          5.4720     0.1540     0.9960 c3         1 HJ4       0.036100
     19 C30          5.2560     1.6470     0.7130 c3         1 HJ4      -0.081433
     20 C32         -0.0270     0.7390    -1.5360 c6         1 HJ4      -0.015500
     21 C33          0.1050     2.0470    -2.3030 c6         1 HJ4      -0.071400
     22 C34         -1.0500     2.9770    -1.9800 c6         1 HJ4      -0.051200
     23 C35         -1.0390     3.2730    -0.5170 ce         1 HJ4       0.002800
     24 C36         -1.2560     4.5260    -0.0610 cf         1 HJ4      -0.267200
     25 O1          -1.3730     6.0210     1.7380 o          1 HJ4      -0.533100
     26 C9          -1.6840    -1.0720     0.7240 ca         1 HJ4      -0.122300
     27 C10         -1.8350    -2.2560     1.4420 ca         1 HJ4      -0.086000
     28 C14         -6.3230    -2.9270    -0.2820 c3         1 HJ4       0.211100
     29 C20          0.1840    -2.3580    -1.4910 c3         1 HJ4      -0.076100
     30 C22          1.8520    -0.3860    -2.9710 c5         1 HJ4      -0.064400
     31 C25          3.6540    -1.2080    -0.4080 c1         1 HJ4      -0.180100
     32 C26          4.4940    -0.6120     0.2160 c1         1 HJ4      -0.111100
     33 C28          6.8920    -0.2540     0.5880 c3         1 HJ4      -0.081433
     34 C29          5.2550    -0.1290     2.4880 c3         1 HJ4      -0.081433
     35 O31          2.7130    -3.3060    -0.9130 oh         1 HJ4      -0.577800
     36 H1           0.3470     3.7850     2.3170 hc         1 HJ4       0.069200
     37 H2          -1.0990     3.9950     3.2910 hc         1 HJ4       0.069200
     38 H3          -0.8650     1.6550     2.4990 hc         1 HJ4       0.055700
     39 H4          -2.3290     2.3810     1.8780 hc         1 HJ4       0.055700
     40 H5          -0.3060     0.0500     1.8410 hc         1 HJ4       0.056700
     41 H6          -3.0460    -3.9010     2.0070 ha         1 HJ4       0.129000
     42 H7          -5.0560    -4.6010     2.2940 h1         1 HJ4       0.034867
     43 H8          -6.3340    -5.0050     1.1660 h1         1 HJ4       0.034867
     44 H9          -4.6510    -5.3000     0.7220 h1         1 HJ4       0.034867
     45 H10         -4.7890    -0.9740    -0.6300 ha         1 HJ4       0.129000
     46 H11         -2.7520     0.2750    -0.5680 ha         1 HJ4       0.127000
     47 H12          1.7270    -0.5760     1.0320 hc         1 HJ4       0.052700
     48 H13          0.8260    -2.0660     1.1530 hc         1 HJ4       0.052700
     49 H14          2.0200     0.5570    -1.0680 hc         1 HJ4       0.059700
     50 H15          3.8360    -1.3390    -2.9380 hc         1 HJ4       0.052700
     51 H16          2.5250    -2.4460    -3.2970 hc         1 HJ4       0.052700
     52 H17          4.2450     1.9570     0.9820 hc         1 HJ4       0.039033
     53 H18          5.9610     2.2450     1.2920 hc         1 HJ4       0.039033
     54 H19          5.4080     1.8730    -0.3430 hc         1 HJ4       0.039033
     55 H20         -0.8190     0.1470    -2.0170 hc         1 HJ4       0.065700
     56 H21          1.0490     2.5340    -2.0380 hc         1 HJ4       0.048700
     57 H22          0.1410     1.8460    -3.3750 hc         1 HJ4       0.048700
     58 H23         -0.9990     3.8980    -2.5620 hc         1 HJ4       0.056200
     59 H24         -1.9960     2.4870    -2.2390 hc         1 HJ4       0.056200
     60 H25         -1.4630     5.3270    -0.7630 ha         1 HJ4       0.145000
     61 H26         -1.0140    -2.6350     2.0390 ha         1 HJ4       0.127000
     62 H27         -5.9940    -3.0460    -1.3210 h1         1 HJ4       0.034867
     63 H28         -7.1900    -3.5660    -0.1310 h1         1 HJ4       0.034867
     64 H29         -6.6600    -1.8960    -0.1550 h1         1 HJ4       0.034867
     65 H30         -0.8130    -1.9240    -1.5180 hc         1 HJ4       0.040367
     66 H31          0.4370    -2.6530    -2.5100 hc         1 HJ4       0.040367
     67 H32          0.1090    -3.2670    -0.8950 hc         1 HJ4       0.040367
     68 H33          1.0580    -0.6670    -3.6670 hc         1 HJ4       0.044700
     69 H34          2.3730     0.4630    -3.4130 hc         1 HJ4       0.044700
     70 H35          7.0680    -0.0620    -0.4710 hc         1 HJ4       0.039033
     71 H36          7.6250     0.3160     1.1610 hc         1 HJ4       0.039033
     72 H37          7.0660    -1.3140     0.7760 hc         1 HJ4       0.039033
     73 H38          5.4030    -1.1860     2.7130 hc         1 HJ4       0.039033
     74 H39          5.9630     0.4460     3.0870 hc         1 HJ4       0.039033
     75 H40          4.2460     0.1460     2.7970 hc         1 HJ4       0.039033
     76 H41          3.5900    -3.6200    -1.1590 ho         1 HJ4       0.409000
@<TRIPOS>BOND
     1     1     2 1   
     2     1    24 1   
     3     1    25 2   
     4     2     3 1   
     5     2    36 1   
     6     2    37 1   
     7     3     4 1   
     8     3    38 1   
     9     3    39 1   
    10     4     5 2   
    11     4    23 1   
    12     5     6 1   
    13     5    20 1   
    14     6    13 1   
    15     6    26 1   
    16     6    40 1   
    17     7     8 ar  
    18     7    27 ar  
    19     7    41 1   
    20     8     9 1   
    21     8    11 ar  
    22     9    10 1   
    23     9    28 1   
    24    10    42 1   
    25    10    43 1   
    26    10    44 1   
    27    11    12 ar  
    28    11    45 1   
    29    12    26 ar  
    30    12    46 1   
    31    13    14 1   
    32    13    47 1   
    33    13    48 1   
    34    14    15 1   
    35    14    17 1   
    36    14    29 1   
    37    15    20 1   
    38    15    30 1   
    39    15    49 1   
    40    16    17 1   
    41    16    30 1   
    42    16    50 1   
    43    16    51 1   
    44    17    31 1   
    45    17    35 1   
    46    18    19 1   
    47    18    32 1   
    48    18    33 1   
    49    18    34 1   
    50    19    52 1   
    51    19    53 1   
    52    19    54 1   
    53    20    21 1   
    54    20    55 1   
    55    21    22 1   
    56    21    56 1   
    57    21    57 1   
    58    22    23 1   
    59    22    58 1   
    60    22    59 1   
    61    23    24 2   
    62    24    60 1   
    63    26    27 ar  
    64    27    61 1   
    65    28    62 1   
    66    28    63 1   
    67    28    64 1   
    68    29    65 1   
    69    29    66 1   
    70    29    67 1   
    71    30    68 1   
    72    30    69 1   
    73    31    32 3   
    74    33    70 1   
    75    33    71 1   
    76    33    72 1   
    77    34    73 1   
    78    34    74 1   
    79    34    75 1   
    80    35    76 1   
@<TRIPOS>SUBSTRUCTURE
     1 HJ4         1 TEMP              0 ****  ****    0 ROOT
