@<TRIPOS>MOLECULE
HJ5
   63    64     1     0     0
SMALL
No Charge or Current Charge


@<TRIPOS>ATOM
      1 C1          -2.4570    -0.4980    -0.9670 c3         1 HJ5      -0.218700
      2 C2          -3.9700    -0.2440    -0.7550 c3         1 HJ5      -0.063400
      3 C3          -4.3010     0.9010     0.2280 c3         1 HJ5      -0.027100
      4 C14          0.1480    -1.4770    -0.0920 c3         1 HJ5      -0.437400
      5 C15          1.3540    -1.5350     0.9060 c3         1 HJ5      -0.081700
      6 C16          1.2310    -2.6890     1.9410 c3         1 HJ5       0.005700
      7 C17          2.3390    -2.7060     2.9090 c1         1 HJ5      -0.158100
      8 C20          2.7070    -1.6250     0.1590 c          1 HJ5       0.619100
      9 C21          3.2690    -2.7010     3.6830 c1         1 HJ5      -0.232000
     10 C24          4.8620    -0.3980    -0.3410 c3         1 HJ5       0.059700
     11 C25          5.2950     1.0900    -0.3440 c3         1 HJ5      -0.035100
     12 C26          4.2040     2.0170    -0.8740 ca         1 HJ5      -0.124300
     13 C27          3.5880     2.9550    -0.0200 ca         1 HJ5      -0.101500
     14 C28          2.5710     3.7950    -0.5070 ca         1 HJ5      -0.094000
     15 C29          2.1650     3.7050    -1.8480 ca         1 HJ5      -0.082000
     16 C30          2.7770     2.7750    -2.7050 ca         1 HJ5      -0.094000
     17 C31          3.7940     1.9340    -2.2190 ca         1 HJ5      -0.101500
     18 C32          5.9220    -1.3390     0.2880 c          1 HJ5       0.549100
     19 C4          -5.7920     1.2100     0.2590 ca         1 HJ5      -0.095300
     20 C5          -6.6530     0.4670     1.0890 ca         1 HJ5      -0.104500
     21 C6          -8.0310     0.7470     1.1160 ca         1 HJ5      -0.108000
     22 C7          -8.5550     1.7730     0.3100 ca         1 HJ5      -0.101000
     23 C8          -7.7010     2.5160    -0.5220 ca         1 HJ5      -0.108000
     24 C9          -6.3240     2.2360    -0.5480 ca         1 HJ5      -0.104500
     25 N10         -2.2630    -1.5060    -2.1380 nz         1 HJ5      -0.945000
     26 N23          3.5640    -0.5660     0.3450 ns         1 HJ5      -0.491900
     27 O22          3.0280    -2.5850    -0.5330 o          1 HJ5      -0.667100
     28 P11         -1.4950    -1.0150     0.6020 p5         1 HJ5       1.343000
     29 H1          -1.9740     0.4430    -1.2420 hx         1 HJ5       0.083700
     30 H22         -4.4210     0.0010    -1.7250 hc         1 HJ5       0.055700
     31 H2          -4.4530    -1.1670    -0.4090 hc         1 HJ5       0.055700
     32 H32         -3.9640     0.6350     1.2370 hc         1 HJ5       0.066700
     33 H3          -3.7350     1.7970    -0.0590 hc         1 HJ5       0.066700
     34 H141         0.3550    -0.7240    -0.8610 hc         1 HJ5       0.052200
     35 H14          0.0310    -2.4420    -0.5980 hc         1 HJ5       0.052200
     36 H15          1.3560    -0.5900     1.4650 hc         1 HJ5       0.091700
     37 H16          0.2910    -2.5990     2.4970 hc         1 HJ5       0.092200
     38 H161         1.1980    -3.6530     1.4180 hc         1 HJ5       0.092200
     39 H21          4.0820    -2.6960     4.3830 ha         1 HJ5       0.259000
     40 H24          4.7370    -0.7200    -1.3830 h1         1 HJ5       0.073700
     41 H251         5.5800     1.3830     0.6740 hc         1 HJ5       0.069700
     42 H25          6.2010     1.1970    -0.9540 hc         1 HJ5       0.069700
     43 H27          3.8930     3.0340     1.0210 ha         1 HJ5       0.109000
     44 H28          2.0980     4.5160     0.1570 ha         1 HJ5       0.130500
     45 H29          1.3770     4.3560    -2.2240 ha         1 HJ5       0.132000
     46 H30          2.4640     2.7050    -3.7440 ha         1 HJ5       0.130500
     47 H31          4.2610     1.2170    -2.8910 ha         1 HJ5       0.109000
     48 H5          -6.2560    -0.3300     1.7140 ha         1 HJ5       0.114000
     49 H6          -8.6910     0.1700     1.7590 ha         1 HJ5       0.117500
     50 H7          -9.6210     1.9900     0.3300 ha         1 HJ5       0.119000
     51 H8          -8.1060     3.3090    -1.1470 ha         1 HJ5       0.117500
     52 H9          -5.6710     2.8150    -1.1970 ha         1 HJ5       0.114000
     53 HN12        -2.7160    -1.2120    -3.0190 hn         1 HJ5       0.498333
     54 HN10        -1.2730    -1.6680    -2.3930 hn         1 HJ5       0.498333
     55 HN11        -2.6450    -2.4480    -1.9420 hn         1 HJ5       0.498333
     56 HN23         3.2240     0.1930     0.9260 hn         1 HJ5       0.370500
     57 HN31         6.3000    -3.3750    -0.4430 hn         1 HJ5       0.521333
     58 HN32         5.7290    -3.3640     1.1030 hn         1 HJ5       0.521333
     59 HN33         4.6930    -3.0810    -0.1580 hn         1 HJ5       0.521333
     60 N34          5.6500    -2.9020     0.1930 nz         1 HJ5      -0.922000
     61 O12         -2.1260    -2.2200     1.2190 o          1 HJ5      -0.756500
     62 O13         -1.3300     0.1340     1.5420 o          1 HJ5      -0.756500
     63 O33          6.9490    -1.0390     0.8660 o          1 HJ5      -0.368100
@<TRIPOS>BOND
     1     1     2 1   
     2     1    25 1   
     3     1    28 1   
     4     1    29 1   
     5     2     3 1   
     6     2    30 1   
     7     2    31 1   
     8     3    19 1   
     9     3    32 1   
    10     3    33 1   
    11     4     5 1   
    12     4    28 1   
    13     4    34 1   
    14     4    35 1   
    15     5     6 1   
    16     5     8 1   
    17     5    36 1   
    18     6     7 1   
    19     6    37 1   
    20     6    38 1   
    21     7     9 3   
    22     8    26 1   
    23     8    27 2   
    24     9    39 1   
    25    10    11 1   
    26    10    18 1   
    27    10    26 1   
    28    10    40 1   
    29    11    12 1   
    30    11    41 1   
    31    11    42 1   
    32    12    13 ar  
    33    12    17 ar  
    34    13    14 ar  
    35    13    43 1   
    36    14    15 ar  
    37    14    44 1   
    38    15    16 ar  
    39    15    45 1   
    40    16    17 ar  
    41    16    46 1   
    42    17    47 1   
    43    18    60 1   
    44    18    63 2   
    45    19    20 ar  
    46    19    24 ar  
    47    20    21 ar  
    48    20    48 1   
    49    21    22 ar  
    50    21    49 1   
    51    22    23 ar  
    52    22    50 1   
    53    23    24 ar  
    54    23    51 1   
    55    24    52 1   
    56    25    53 1   
    57    25    54 1   
    58    25    55 1   
    59    26    56 1   
    60    28    61 1   
    61    28    62 1   
    62    57    60 1   
    63    58    60 1   
    64    59    60 1   
@<TRIPOS>SUBSTRUCTURE
     1 HJ5         1 TEMP              0 ****  ****    0 ROOT
