@<TRIPOS>MOLECULE
HJ5
   63    64     1     0     0
SMALL
abcg2


@<TRIPOS>ATOM
      1 C1          -2.6350    -1.4520    -0.8420 c3         1 HJ5      -0.218700
      2 C2          -3.9680    -0.7600    -0.5700 c3         1 HJ5      -0.063400
      3 C3          -3.8590     0.7630    -0.6570 c3         1 HJ5      -0.027100
      4 C14          0.1130    -1.8400    -0.0600 c3         1 HJ5      -0.437400
      5 C15          1.2220    -1.8720     1.0010 c3         1 HJ5      -0.081700
      6 C16          1.2290    -3.1910     1.7820 c3         1 HJ5       0.005700
      7 C17          2.2890    -3.2250     2.7800 c1         1 HJ5      -0.158100
      8 C20          2.5550    -1.6670     0.3190 c          1 HJ5       0.619100
      9 C21          3.1850    -3.2280     3.5820 c1         1 HJ5      -0.232000
     10 C24          4.3170    -0.1650    -0.2780 c3         1 HJ5       0.059700
     11 C25          4.8490     1.2300     0.0810 c3         1 HJ5      -0.035100
     12 C26          3.8770     2.3000    -0.3350 ca         1 HJ5      -0.124300
     13 C27          3.0750     2.9330     0.6110 ca         1 HJ5      -0.101500
     14 C28          2.1510     3.8960     0.2240 ca         1 HJ5      -0.094000
     15 C29          2.0210     4.2370    -1.1140 ca         1 HJ5      -0.082000
     16 C30          2.8210     3.6130    -2.0640 ca         1 HJ5      -0.094000
     17 C31          3.7400     2.6500    -1.6770 ca         1 HJ5      -0.101500
     18 C32          5.3210    -1.2150     0.1560 c          1 HJ5       0.549100
     19 C4          -5.1910     1.4190    -0.4240 ca         1 HJ5      -0.095300
     20 C5          -5.5970     1.7670     0.8620 ca         1 HJ5      -0.104500
     21 C6          -6.8450     2.3340     1.0860 ca         1 HJ5      -0.108000
     22 C7          -7.7070     2.5650     0.0220 ca         1 HJ5      -0.101000
     23 C8          -7.3140     2.2210    -1.2650 ca         1 HJ5      -0.108000
     24 C9          -6.0660     1.6520    -1.4830 ca         1 HJ5      -0.104500
     25 N10         -2.8930    -2.8530    -1.2880 nz         1 HJ5      -0.945000
     26 N23          3.0780    -0.4330     0.3940 ns         1 HJ5      -0.491900
     27 O22          3.1470    -2.5530    -0.2870 o          1 HJ5      -0.667100
     28 P11         -1.5480    -1.5550     0.6820 p5         1 HJ5       1.343000
     29 H1          -2.1180    -0.9620    -1.6690 hx         1 HJ5       0.083700
     30 H22         -4.7050    -1.0940    -1.3090 hc         1 HJ5       0.055700
     31 H2          -4.3610    -1.0550     0.4070 hc         1 HJ5       0.055700
     32 H32         -3.1320     1.1130     0.0740 hc         1 HJ5       0.066700
     33 H3          -3.4800     1.0340    -1.6460 hc         1 HJ5       0.066700
     34 H141         0.2860    -1.0090    -0.7510 hc         1 HJ5       0.052200
     35 H14          0.1470    -2.7560    -0.6570 hc         1 HJ5       0.052200
     36 H15          1.0600    -1.0510     1.7060 hc         1 HJ5       0.091700
     37 H16          0.2600    -3.3210     2.2640 hc         1 HJ5       0.092200
     38 H161         1.3500    -4.0290     1.0920 hc         1 HJ5       0.092200
     39 H21          3.9710    -3.2400     4.3020 ha         1 HJ5       0.259000
     40 H24          4.1760    -0.2300    -1.3620 h1         1 HJ5       0.073700
     41 H251         5.0270     1.2780     1.1570 hc         1 HJ5       0.069700
     42 H25          5.8150     1.3810    -0.4060 hc         1 HJ5       0.069700
     43 H27          3.1770     2.6790     1.6600 ha         1 HJ5       0.109000
     44 H28          1.5330     4.3790     0.9710 ha         1 HJ5       0.130500
     45 H29          1.3040     4.9890    -1.4170 ha         1 HJ5       0.132000
     46 H30          2.7290     3.8790    -3.1090 ha         1 HJ5       0.130500
     47 H31          4.3600     2.1680    -2.4240 ha         1 HJ5       0.109000
     48 H5          -4.9290     1.5930     1.6980 ha         1 HJ5       0.114000
     49 H6          -7.1440     2.5980     2.0930 ha         1 HJ5       0.117500
     50 H7          -8.6770     3.0130     0.1950 ha         1 HJ5       0.119000
     51 H8          -7.9770     2.4010    -2.1020 ha         1 HJ5       0.117500
     52 H9          -5.7650     1.3900    -2.4910 ha         1 HJ5       0.114000
     53 HN12        -3.5770    -2.8990    -2.0440 hn         1 HJ5       0.498333
     54 HN10        -2.0530    -3.3130    -1.6350 hn         1 HJ5       0.498333
     55 HN11        -3.2370    -3.4200    -0.5080 hn         1 HJ5       0.498333
     56 HN23         2.6390     0.2840     0.9510 hn         1 HJ5       0.370500
     57 HN31         6.5310    -1.1910    -1.5700 hn         1 HJ5       0.521333
     58 HN32         6.7260    -2.5460    -0.6470 hn         1 HJ5       0.521333
     59 HN33         5.3730    -2.3600    -1.5840 hn         1 HJ5       0.521333
     60 N34          6.0370    -1.8670    -0.9790 nz         1 HJ5      -0.922000
     61 O12         -2.0410    -2.7870     1.4130 o          1 HJ5      -0.756500
     62 O13         -1.5290    -0.2130     1.3670 o          1 HJ5      -0.756500
     63 O33          5.6210    -1.5080     1.2620 o          1 HJ5      -0.368100
@<TRIPOS>BOND
     1     1     2 1   
     2     1    25 1   
     3     1    28 1   
     4     1    29 1   
     5     2     3 1   
     6     2    30 1   
     7     2    31 1   
     8     3    19 1   
     9     3    32 1   
    10     3    33 1   
    11     4     5 1   
    12     4    28 1   
    13     4    34 1   
    14     4    35 1   
    15     5     6 1   
    16     5     8 1   
    17     5    36 1   
    18     6     7 1   
    19     6    37 1   
    20     6    38 1   
    21     7     9 3   
    22     8    26 1   
    23     8    27 2   
    24     9    39 1   
    25    10    11 1   
    26    10    18 1   
    27    10    26 1   
    28    10    40 1   
    29    11    12 1   
    30    11    41 1   
    31    11    42 1   
    32    12    13 ar  
    33    12    17 ar  
    34    13    14 ar  
    35    13    43 1   
    36    14    15 ar  
    37    14    44 1   
    38    15    16 ar  
    39    15    45 1   
    40    16    17 ar  
    41    16    46 1   
    42    17    47 1   
    43    18    60 1   
    44    18    63 2   
    45    19    20 ar  
    46    19    24 ar  
    47    20    21 ar  
    48    20    48 1   
    49    21    22 ar  
    50    21    49 1   
    51    22    23 ar  
    52    22    50 1   
    53    23    24 ar  
    54    23    51 1   
    55    24    52 1   
    56    25    53 1   
    57    25    54 1   
    58    25    55 1   
    59    26    56 1   
    60    28    61 1   
    61    28    62 1   
    62    57    60 1   
    63    58    60 1   
    64    59    60 1   
@<TRIPOS>SUBSTRUCTURE
     1 HJ5         1 TEMP              0 ****  ****    0 ROOT
