@<TRIPOS>MOLECULE
HJ6
   75    80     1     0     0
SMALL
abcg2


@<TRIPOS>ATOM
      1 C13          8.2500   -19.0450   -28.3710 ca         1 HJ6       0.034000
      2 C15          8.2110   -21.2820   -27.4840 ca         1 HJ6      -0.019000
      3 C17          3.7550   -21.9390   -26.9040 cy         1 HJ6      -0.116700
      4 C20          3.0890   -18.8270   -29.2300 ca         1 HJ6      -0.099000
      5 C21          2.5470   -18.1160   -30.2810 ca         1 HJ6      -0.015000
      6 C22          1.1930   -17.7310   -30.3040 ca         1 HJ6      -0.168600
      7 C24         -0.9190   -15.3950   -32.3900 c3         1 HJ6       0.099300
      8 C26          0.8750   -18.8060   -28.1970 ca         1 HJ6       0.043400
      9 C28          0.9380   -20.4400   -25.0870 cc         1 HJ6       0.154700
     10 C            5.0610   -22.6130   -26.4510 cy         1 HJ6       0.201800
     11 O            7.4980   -24.1350   -27.6960 o          1 HJ6      -0.545000
     12 C01          7.3670   -21.6550   -28.5210 ca         1 HJ6      -0.339500
     13 C02          6.9710   -20.7450   -29.4950 ca         1 HJ6       0.050000
     14 C03          7.4040   -19.4340   -29.4040 ca         1 HJ6      -0.247500
     15 C14          8.6580   -19.9690   -27.4220 ca         1 HJ6      -0.168000
     16 C16          4.1050   -22.3530   -28.3480 cy         1 HJ6       0.201800
     17 C18          3.6790   -20.4540   -26.6040 c3         1 HJ6       0.084600
     18 C19          2.2300   -19.1720   -28.1930 ca         1 HJ6      -0.053200
     19 C23          0.7110   -16.9750   -31.5000 c          1 HJ6       0.611700
     20 C25          0.3460   -18.0820   -29.2620 ca         1 HJ6      -0.041000
     21 C27          1.2050   -19.8690   -26.3860 cc         1 HJ6       0.348800
     22 C29         -0.1720   -20.3690   -24.3020 cd         1 HJ6      -0.147000
     23 C30          0.1440   -21.0750   -23.1090 cd         1 HJ6      -0.158000
     24 C31          1.4120   -21.5310   -23.2610 cc         1 HJ6       0.074300
     25 C32          3.9910   -20.6310   -21.6430 cc         1 HJ6      -0.016300
     26 C33          3.0710   -19.8390   -20.7910 c3         1 HJ6      -0.042800
     27 C34          5.3350   -20.4630   -21.9630 cd         1 HJ6      -0.337200
     28 C35          5.6920   -21.5250   -22.8280 cd         1 HJ6       0.349300
     29 C36          6.9930   -21.8530   -23.4670 c3         1 HJ6      -0.133400
     30 N02          5.2140   -23.1630   -27.8090 nq         1 HJ6      -0.729500
     31 N03          2.4220   -19.8550   -27.0190 na         1 HJ6      -0.160600
     32 N04         -0.3490   -16.1720   -31.3150 ns         1 HJ6      -0.513900
     33 N05          0.2660   -19.2580   -27.0610 nd         1 HJ6      -0.562100
     34 N06          3.6370   -21.7360   -22.3040 na         1 HJ6       0.136800
     35 N07          4.6380   -22.2790   -23.0200 nc         1 HJ6      -0.525800
     36 O01          6.4070   -23.6550   -29.9240 o          1 HJ6      -0.545000
     37 O05          5.8020   -18.8690   -31.3760 o          1 HJ6      -0.686533
     38 O06          6.4480   -17.0660   -29.8200 o          1 HJ6      -0.686533
     39 O07          1.2610   -17.0860   -32.5890 o          1 HJ6      -0.588100
     40 O08          5.7100   -18.6140   -20.7240 o          1 HJ6      -0.418000
     41 O09          7.3080   -19.3810   -21.9210 o          1 HJ6      -0.418000
     42 O10          1.8950   -21.1530   -24.4590 os         1 HJ6      -0.223000
     43 S            6.8880   -18.2180   -30.6210 s6         1 HJ6       1.256100
     44 S01          6.6770   -23.2880   -28.5450 sy         1 HJ6       1.154600
     45 H1           8.5890   -18.0200   -28.2970 ha         1 HJ6       0.131000
     46 H2           8.5210   -21.9950   -26.7330 ha         1 HJ6       0.116000
     47 H3           2.8760   -22.4620   -26.5310 hc         1 HJ6       0.080700
     48 H4           4.1370   -19.0930   -29.2360 ha         1 HJ6       0.153000
     49 H5           3.1900   -17.8430   -31.1060 ha         1 HJ6       0.177000
     50 H6          -1.7740   -14.8490   -32.0020 h1         1 HJ6       0.034033
     51 H7          -0.2070   -14.6760   -32.7980 h1         1 HJ6       0.034033
     52 H8          -1.2630   -16.0330   -33.2040 h1         1 HJ6       0.034033
     53 H9           4.9790   -23.3720   -25.6760 h1         1 HJ6       0.070950
     54 H10          5.8370   -21.8950   -26.1690 h1         1 HJ6       0.070950
     55 H11          6.3290   -21.0460   -30.3130 ha         1 HJ6       0.155000
     56 H12          1.8750   -22.4460   -21.4120 h1         1 HJ6       0.089700
     57 H13          2.4690   -23.3360   -22.8030 h1         1 HJ6       0.089700
     58 H14          9.3200   -19.6680   -26.6220 ha         1 HJ6       0.105000
     59 H15          4.4210   -21.5170   -28.9780 h1         1 HJ6       0.070950
     60 H16          3.3660   -22.9420   -28.8870 h1         1 HJ6       0.070950
     61 H17          4.4820   -19.9250   -27.1200 h1         1 HJ6       0.076700
     62 H18          3.8340   -20.2750   -25.5420 h1         1 HJ6       0.076700
     63 H19         -0.7080   -17.8330   -29.2650 ha         1 HJ6       0.116000
     64 H20         -1.0910   -19.8580   -24.5390 ha         1 HJ6       0.163000
     65 H21         -0.4880   -21.2180   -22.2470 ha         1 HJ6       0.140000
     66 H22          3.4570   -19.7680   -19.7750 hc         1 HJ6       0.070367
     67 H23          2.9700   -18.8250   -21.1750 hc         1 HJ6       0.070367
     68 H24          2.0790   -20.2810   -20.7460 hc         1 HJ6       0.070367
     69 H25          6.9120   -22.7970   -24.0020 hc         1 HJ6       0.068700
     70 H26          7.2920   -21.0810   -24.1770 hc         1 HJ6       0.068700
     71 H27          7.7890   -21.9430   -22.7290 hc         1 HJ6       0.068700
     72 H28         -0.6840   -15.9960   -30.3830 hn         1 HJ6       0.313500
     73 O1           8.0910   -17.9530   -31.4220 o          1 HJ6      -0.686533
     74 C1           2.3180   -22.3340   -22.4010 c3         1 HJ6       0.062300
     75 N            6.1680   -19.4220   -21.5060 no         1 HJ6       0.743200
@<TRIPOS>BOND
     1     1    14 ar  
     2     1    15 ar  
     3     1    45 1   
     4     2    12 ar  
     5     2    15 ar  
     6     2    46 1   
     7     3    10 1   
     8     3    16 1   
     9     3    17 1   
    10     3    47 1   
    11     4     5 ar  
    12     4    18 ar  
    13     4    48 1   
    14     5     6 ar  
    15     5    49 1   
    16     6    19 1   
    17     6    20 ar  
    18     7    32 1   
    19     7    50 1   
    20     7    51 1   
    21     7    52 1   
    22     8    18 ar  
    23     8    20 ar  
    24     8    33 1   
    25     9    21 1   
    26     9    22 2   
    27     9    42 1   
    28    10    30 1   
    29    10    53 1   
    30    10    54 1   
    31    11    44 2   
    32    12    13 ar  
    33    12    44 1   
    34    13    14 ar  
    35    13    55 1   
    36    14    43 1   
    37    15    58 1   
    38    16    30 1   
    39    16    59 1   
    40    16    60 1   
    41    17    31 1   
    42    17    61 1   
    43    17    62 1   
    44    18    31 1   
    45    19    32 1   
    46    19    39 2   
    47    20    63 1   
    48    21    31 1   
    49    21    33 2   
    50    22    23 1   
    51    22    64 1   
    52    23    24 2   
    53    23    65 1   
    54    24    42 1   
    55    24    74 1   
    56    25    26 1   
    57    25    27 2   
    58    25    34 1   
    59    26    66 1   
    60    26    67 1   
    61    26    68 1   
    62    27    28 1   
    63    27    75 1   
    64    28    29 1   
    65    28    35 2   
    66    29    69 1   
    67    29    70 1   
    68    29    71 1   
    69    30    44 1   
    70    32    72 1   
    71    34    35 1   
    72    34    74 1   
    73    36    44 2   
    74    37    43 1   
    75    38    43 1   
    76    40    75 1   
    77    41    75 1   
    78    43    73 1   
    79    56    74 1   
    80    57    74 1   
@<TRIPOS>SUBSTRUCTURE
     1 HJ6         1 TEMP              0 ****  ****    0 ROOT
