@<TRIPOS>MOLECULE
HJ6
   75    80     1     0     0
SMALL
No Charge or Current Charge


@<TRIPOS>ATOM
      1 C13          9.2020   -19.0300   -28.8790 ca         1 HJ6       0.034000
      2 C15          8.8370   -21.1330   -27.7000 ca         1 HJ6      -0.019000
      3 C17          4.0750   -20.9330   -26.2310 cy         1 HJ6      -0.116700
      4 C20          2.8840   -18.2030   -28.7350 ca         1 HJ6      -0.099000
      5 C21          2.3900   -17.6400   -29.9290 ca         1 HJ6      -0.015000
      6 C22          0.9940   -17.6020   -30.1980 ca         1 HJ6      -0.168600
      7 C24         -1.4950   -16.4250   -32.8990 c3         1 HJ6       0.099300
      8 C26          0.6110   -18.7060   -28.0620 ca         1 HJ6       0.043400
      9 C28          0.6190   -20.3790   -24.8940 cc         1 HJ6       0.154700
     10 C            5.6310   -21.0640   -26.1950 cy         1 HJ6       0.201800
     11 O            7.3700   -23.7880   -27.3560 o          1 HJ6      -0.545000
     12 C01          7.6700   -21.3510   -28.4570 ca         1 HJ6      -0.339500
     13 C02          7.2710   -20.4070   -29.4250 ca         1 HJ6       0.050000
     14 C03          8.0280   -19.2380   -29.6310 ca         1 HJ6      -0.247500
     15 C14          9.6010   -19.9760   -27.9190 ca         1 HJ6      -0.168000
     16 C16          4.2380   -21.4490   -27.6970 cy         1 HJ6       0.201800
     17 C18          3.4590   -19.5430   -26.0030 c3         1 HJ6       0.084600
     18 C19          1.9550   -18.7270   -27.8230 ca         1 HJ6      -0.053200
     19 C23          0.5100   -16.9850   -31.4910 c          1 HJ6       0.611700
     20 C25          0.0940   -18.1480   -29.2410 ca         1 HJ6      -0.041000
     21 C27          0.8430   -19.6820   -26.1430 cc         1 HJ6       0.348800
     22 C29         -0.5990   -20.7590   -24.3960 cd         1 HJ6      -0.147000
     23 C30         -0.3450   -21.4330   -23.1810 cd         1 HJ6      -0.158000
     24 C31          1.0130   -21.4340   -22.9950 cc         1 HJ6       0.074300
     25 C32          4.1730   -20.9180   -22.0900 cc         1 HJ6      -0.016300
     26 C33          3.7740   -19.5190   -21.6770 c3         1 HJ6      -0.042800
     27 C34          5.3990   -21.4280   -22.4600 cd         1 HJ6      -0.337200
     28 C35          5.1740   -22.7970   -22.7600 cd         1 HJ6       0.349300
     29 C36          6.1680   -23.8280   -23.2270 c3         1 HJ6      -0.133400
     30 N02          5.4300   -22.1650   -27.1720 nq         1 HJ6      -0.729500
     31 N03          2.1260   -19.3320   -26.6090 na         1 HJ6      -0.160600
     32 N04         -0.8500   -16.9790   -31.7070 ns         1 HJ6      -0.513900
     33 N05         -0.1060   -19.2940   -27.0250 nd         1 HJ6      -0.562100
     34 N06          3.3070   -22.0100   -22.1790 na         1 HJ6       0.136800
     35 N07          3.9220   -23.1660   -22.5920 nc         1 HJ6      -0.525800
     36 O01          5.9840   -23.1720   -29.4200 o          1 HJ6      -0.545000
     37 O05          6.0160   -17.9950   -30.6610 o          1 HJ6      -0.686533
     38 O06          8.2010   -16.7950   -30.4920 o          1 HJ6      -0.686533
     39 O07          1.2820   -16.5110   -32.3140 o          1 HJ6      -0.588100
     40 O08          6.6840   -19.5260   -22.2280 o          1 HJ6      -0.418000
     41 O09          7.6600   -21.3380   -22.9260 o          1 HJ6      -0.418000
     42 O10          1.6210   -20.7740   -24.0400 os         1 HJ6      -0.223000
     43 S            7.4690   -18.0080   -30.8850 s6         1 HJ6       1.256100
     44 S01          6.6460   -22.8000   -28.1640 sy         1 HJ6       1.154600
     45 H1           9.8080   -18.1390   -29.0310 ha         1 HJ6       0.131000
     46 H2           9.1510   -21.8490   -26.9420 ha         1 HJ6       0.116000
     47 H3           3.5670   -21.6560   -25.5830 hc         1 HJ6       0.080700
     48 H4           3.9540   -18.2250   -28.5460 ha         1 HJ6       0.153000
     49 H5           3.1010   -17.2320   -30.6480 ha         1 HJ6       0.177000
     50 H6          -2.5820   -16.5480   -32.8180 h1         1 HJ6       0.034033
     51 H7          -1.2570   -15.3570   -32.9860 h1         1 HJ6       0.034033
     52 H8          -1.1360   -16.9530   -33.7920 h1         1 HJ6       0.034033
     53 H9           6.0540   -21.3550   -25.2280 h1         1 HJ6       0.070950
     54 H10          6.1560   -20.1800   -26.5800 h1         1 HJ6       0.070950
     55 H11          6.3660   -20.5710   -30.0100 ha         1 HJ6       0.155000
     56 H12          1.6770   -21.4730   -20.9650 h1         1 HJ6       0.089700
     57 H13          1.5430   -23.0600   -21.7270 h1         1 HJ6       0.089700
     58 H14         10.5040   -19.8070   -27.3380 ha         1 HJ6       0.105000
     59 H15          4.4530   -20.6580   -28.4270 h1         1 HJ6       0.070950
     60 H16          3.4170   -22.0790   -28.0610 h1         1 HJ6       0.070950
     61 H17          4.1510   -18.7930   -26.4060 h1         1 HJ6       0.076700
     62 H18          3.4060   -19.3530   -24.9240 h1         1 HJ6       0.076700
     63 H19         -0.9810   -18.1510   -29.3930 ha         1 HJ6       0.116000
     64 H20         -1.5660   -20.5830   -24.8570 ha         1 HJ6       0.163000
     65 H21         -1.0820   -21.8780   -22.5200 ha         1 HJ6       0.140000
     66 H22          4.2690   -19.2350   -20.7410 hc         1 HJ6       0.070367
     67 H23          4.0610   -18.7910   -22.4450 hc         1 HJ6       0.070367
     68 H24          2.6940   -19.4200   -21.5250 hc         1 HJ6       0.070367
     69 H25          5.7000   -24.8110   -23.3580 hc         1 HJ6       0.068700
     70 H26          6.6050   -23.5420   -24.1900 hc         1 HJ6       0.068700
     71 H27          6.9810   -23.9440   -22.5020 hc         1 HJ6       0.068700
     72 H28         -1.4340   -17.3860   -30.9880 hn         1 HJ6       0.313500
     73 O1           7.9130   -18.6510   -32.1300 o          1 HJ6      -0.686533
     74 C1           1.8580   -22.0240   -21.8950 c3         1 HJ6       0.062300
     75 N            6.6660   -20.7220   -22.5320 no         1 HJ6       0.743200
@<TRIPOS>BOND
     1     1    14 ar  
     2     1    15 ar  
     3     1    45 1   
     4     2    12 ar  
     5     2    15 ar  
     6     2    46 1   
     7     3    10 1   
     8     3    16 1   
     9     3    17 1   
    10     3    47 1   
    11     4     5 ar  
    12     4    18 ar  
    13     4    48 1   
    14     5     6 ar  
    15     5    49 1   
    16     6    19 1   
    17     6    20 ar  
    18     7    32 1   
    19     7    50 1   
    20     7    51 1   
    21     7    52 1   
    22     8    18 ar  
    23     8    20 ar  
    24     8    33 1   
    25     9    21 1   
    26     9    22 2   
    27     9    42 1   
    28    10    30 1   
    29    10    53 1   
    30    10    54 1   
    31    11    44 2   
    32    12    13 ar  
    33    12    44 1   
    34    13    14 ar  
    35    13    55 1   
    36    14    43 1   
    37    15    58 1   
    38    16    30 1   
    39    16    59 1   
    40    16    60 1   
    41    17    31 1   
    42    17    61 1   
    43    17    62 1   
    44    18    31 1   
    45    19    32 1   
    46    19    39 2   
    47    20    63 1   
    48    21    31 1   
    49    21    33 2   
    50    22    23 1   
    51    22    64 1   
    52    23    24 2   
    53    23    65 1   
    54    24    42 1   
    55    24    74 1   
    56    25    26 1   
    57    25    27 2   
    58    25    34 1   
    59    26    66 1   
    60    26    67 1   
    61    26    68 1   
    62    27    28 1   
    63    27    75 1   
    64    28    29 1   
    65    28    35 2   
    66    29    69 1   
    67    29    70 1   
    68    29    71 1   
    69    30    44 1   
    70    32    72 1   
    71    34    35 1   
    72    34    74 1   
    73    36    44 2   
    74    37    43 1   
    75    38    43 1   
    76    40    75 1   
    77    41    75 1   
    78    43    73 1   
    79    56    74 1   
    80    57    74 1   
@<TRIPOS>SUBSTRUCTURE
     1 HJ6         1 TEMP              0 ****  ****    0 ROOT
