@<TRIPOS>MOLECULE
HJ7
   17    16     1     0     0
SMALL
abcg2


@<TRIPOS>ATOM
      1 C02          1.7700     0.0650     0.0470 c          1 HJ7       0.447300
      2 C03          3.0530    -0.8140     0.1070 c          1 HJ7       0.630000
      3 C06          0.5410    -0.5770    -0.4110 ce         1 HJ7      -0.368200
      4 C07         -0.6380     0.0590    -0.5450 cf         1 HJ7      -0.050400
      5 C08         -0.8930     1.5110    -0.2050 c          1 HJ7       0.741200
      6 C11         -1.8480    -0.6510    -1.0590 c3         1 HJ7      -0.176200
      7 C12         -2.9130    -0.8040     0.0620 c          1 HJ7       0.743000
      8 O01          1.8310     1.2380     0.3720 o          1 HJ7      -0.573100
      9 O04          4.1190    -0.1970     0.2490 o          1 HJ7      -0.758000
     10 O05          2.8840    -2.0440     0.0160 o          1 HJ7      -0.758000
     11 O09         -1.2430     1.7440     0.9640 o          1 HJ7      -0.755500
     12 O10         -0.8180     2.3090    -1.1560 o          1 HJ7      -0.755500
     13 O13         -3.9850    -0.1900    -0.0860 o          1 HJ7      -0.764500
     14 O14         -2.5940    -1.5460     1.0080 o          1 HJ7      -0.764500
     15 H061         0.6060    -1.6220    -0.6860 ha         1 HJ7       0.155000
     16 H112        -2.2630    -0.0850    -1.8970 hc         1 HJ7       0.003200
     17 H111        -1.5700    -1.6420    -1.4280 hc         1 HJ7       0.003200
@<TRIPOS>BOND
     1     1     2 1   
     2     1     3 1   
     3     1     8 2   
     4     2     9 1   
     5     2    10 1   
     6     3     4 2   
     7     3    15 1   
     8     4     5 1   
     9     4     6 1   
    10     5    11 1   
    11     5    12 1   
    12     6     7 1   
    13     6    16 1   
    14     6    17 1   
    15     7    13 1   
    16     7    14 1   
@<TRIPOS>SUBSTRUCTURE
     1 HJ7         1 TEMP              0 ****  ****    0 ROOT
