@<TRIPOS>MOLECULE
HJ7
   17    16     1     0     0
SMALL
No Charge or Current Charge


@<TRIPOS>ATOM
      1 C02          1.8550     0.1320     0.0790 c          1 HJ7       0.447300
      2 C03          2.9780    -1.0090     0.4140 c          1 HJ7       0.630000
      3 C06          0.5080    -0.3880    -0.3710 ce         1 HJ7      -0.368200
      4 C07         -0.7010     0.2540    -0.5840 cf         1 HJ7      -0.050400
      5 C08         -1.0260     1.7210    -0.2550 c          1 HJ7       0.741200
      6 C11         -1.8350    -0.5750    -1.2190 c3         1 HJ7      -0.176200
      7 C12         -2.7970    -1.0900    -0.1270 c          1 HJ7       0.743000
      8 O01          2.1280     1.3320     0.1350 o          1 HJ7      -0.573100
      9 O04          4.1490    -0.8000     0.1010 o          1 HJ7      -0.758000
     10 O05          2.6250    -2.0450     0.9740 o          1 HJ7      -0.758000
     11 O09         -0.4190     2.2950     0.6380 o          1 HJ7      -0.755500
     12 O10         -1.9600     2.2680    -0.8280 o          1 HJ7      -0.755500
     13 O13         -3.7390    -0.3860     0.2050 o          1 HJ7      -0.764500
     14 O14         -2.5190    -2.1370     0.4380 o          1 HJ7      -0.764500
     15 H061         0.5400    -1.4530    -0.5910 ha         1 HJ7       0.155000
     16 H112        -2.3740     0.0630    -1.9280 hc         1 HJ7       0.003200
     17 H111        -1.3740    -1.4300    -1.7310 hc         1 HJ7       0.003200
@<TRIPOS>BOND
     1     1     2 1   
     2     1     3 1   
     3     1     8 2   
     4     2     9 1   
     5     2    10 1   
     6     3     4 2   
     7     3    15 1   
     8     4     5 1   
     9     4     6 1   
    10     5    11 1   
    11     5    12 1   
    12     6     7 1   
    13     6    16 1   
    14     6    17 1   
    15     7    13 1   
    16     7    14 1   
@<TRIPOS>SUBSTRUCTURE
     1 HJ7         1 TEMP              0 ****  ****    0 ROOT
