@<TRIPOS>MOLECULE
HJ8
   25    25     1     0     0
SMALL
No Charge or Current Charge


@<TRIPOS>ATOM
      1 N1          -2.7150     1.4090    -0.2490 nc         1 HJ8      -0.451000
      2 N3          -1.8010    -0.5480    -0.0690 na         1 HJ8       0.155800
      3 C4          -0.8000     0.3450     0.2660 cd         1 HJ8      -0.148300
      4 C5          -1.4220     1.5450     0.1380 cc         1 HJ8       0.399300
      5 C6          -1.7420    -2.0200    -0.0960 c3         1 HJ8       0.078600
      6 C7          -2.0580    -2.6650     1.2680 c3         1 HJ8      -0.110100
      7 C1           3.1190     0.1030     0.1280 c          1 HJ8       0.693000
      8 C2           1.6520     0.1400    -0.4620 c3         1 HJ8       0.013500
      9 C3           0.6160     0.0100     0.6870 c3         1 HJ8       0.014900
     10 N2          -2.9610     0.1290    -0.3790 nd         1 HJ8      -0.243800
     11 N4           1.3640    -0.8390    -1.5810 n8         1 HJ8      -1.011200
     12 O3          -0.8800     2.7460     0.3640 oh         1 HJ8      -0.625300
     13 H5          -2.4570    -2.3830    -0.8440 h1         1 HJ8       0.078200
     14 H6          -0.7410    -2.3260    -0.4220 h1         1 HJ8       0.078200
     15 H9          -1.3440    -2.3330     2.0310 hc         1 HJ8       0.042700
     16 H7          -3.0690    -2.3950     1.5980 hc         1 HJ8       0.042700
     17 H8          -2.0010    -3.7580     1.1950 hc         1 HJ8       0.042700
     18 H10          1.5240     1.1460    -0.8860 h1         1 HJ8       0.051700
     19 H12          0.9120     0.6900     1.4960 hc         1 HJ8       0.060700
     20 H11          0.6690    -0.9980     1.1140 hc         1 HJ8       0.060700
     21 H2           1.9970    -0.6440    -2.3660 hn         1 HJ8       0.385500
     22 H3           1.6610    -1.7740    -1.2740 hn         1 HJ8       0.385500
     23 H4          -1.6080     3.3750     0.1780 ho         1 HJ8       0.461000
     24 O1           3.5550    -0.9680     0.5330 o          1 HJ8      -0.727500
     25 O2           3.7970     1.1190     0.0620 o          1 HJ8      -0.727500
@<TRIPOS>BOND
     1     1     4 1   
     2     1    10 2   
     3     2     3 1   
     4     2     5 1   
     5     2    10 1   
     6     3     4 2   
     7     3     9 1   
     8     4    12 1   
     9     5     6 1   
    10     5    13 1   
    11     5    14 1   
    12     6    15 1   
    13     6    16 1   
    14     6    17 1   
    15     7     8 1   
    16     7    24 1   
    17     7    25 1   
    18     8     9 1   
    19     8    11 1   
    20     8    18 1   
    21     9    19 1   
    22     9    20 1   
    23    11    21 1   
    24    11    22 1   
    25    12    23 1   
@<TRIPOS>SUBSTRUCTURE
     1 HJ8         1 TEMP              0 ****  ****    0 ROOT
