@<TRIPOS>MOLECULE
HJ8
   25    25     1     0     0
SMALL
abcg2


@<TRIPOS>ATOM
      1 N1          -2.6840     1.3190    -0.3340 nc         1 HJ8      -0.451000
      2 N3          -1.7280    -0.5520    -0.1120 na         1 HJ8       0.155800
      3 C4          -0.7840     0.3400     0.2600 cd         1 HJ8      -0.148300
      4 C5          -1.4390     1.5400     0.0980 cc         1 HJ8       0.399300
      5 C6          -1.6470    -2.0010    -0.0810 c3         1 HJ8       0.078600
      6 C7          -1.9900    -2.5660     1.2860 c3         1 HJ8      -0.110100
      7 C1           3.0450    -0.0250     0.1090 c          1 HJ8       0.693000
      8 C2           1.6160     0.1040    -0.4760 c3         1 HJ8       0.013500
      9 C3           0.6070     0.0450     0.6840 c3         1 HJ8       0.014900
     10 N2          -2.8530     0.0360    -0.4540 nd         1 HJ8      -0.243800
     11 N4           1.2610    -0.8790    -1.4840 n8         1 HJ8      -1.011200
     12 O3          -0.9240     2.7560     0.3250 oh         1 HJ8      -0.625300
     13 H5          -2.3360    -2.3710    -0.8380 h1         1 HJ8       0.078200
     14 H6          -0.6430    -2.2770    -0.3930 h1         1 HJ8       0.078200
     15 H9          -1.3020    -2.2100     2.0540 hc         1 HJ8       0.042700
     16 H7          -3.0030    -2.2960     1.5810 hc         1 HJ8       0.042700
     17 H8          -1.9250    -3.6540     1.2580 hc         1 HJ8       0.042700
     18 H10          1.5300     1.0970    -0.9290 h1         1 HJ8       0.051700
     19 H12          0.8980     0.7670     1.4480 hc         1 HJ8       0.060700
     20 H11          0.6610    -0.9400     1.1580 hc         1 HJ8       0.060700
     21 H2           1.7260    -0.6450    -2.3520 hn         1 HJ8       0.385500
     22 H3           1.6690    -1.7660    -1.2070 hn         1 HJ8       0.385500
     23 H4          -1.5970     3.4260     0.1570 ho         1 HJ8       0.461000
     24 O1           3.6710    -1.0770    -0.1300 o          1 HJ8      -0.727500
     25 O2           3.4370     0.9360     0.8010 o          1 HJ8      -0.727500
@<TRIPOS>BOND
     1     1     4 1   
     2     1    10 2   
     3     2     3 1   
     4     2     5 1   
     5     2    10 1   
     6     3     4 2   
     7     3     9 1   
     8     4    12 1   
     9     5     6 1   
    10     5    13 1   
    11     5    14 1   
    12     6    15 1   
    13     6    16 1   
    14     6    17 1   
    15     7     8 1   
    16     7    24 1   
    17     7    25 1   
    18     8     9 1   
    19     8    11 1   
    20     8    18 1   
    21     9    19 1   
    22     9    20 1   
    23    11    21 1   
    24    11    22 1   
    25    12    23 1   
@<TRIPOS>SUBSTRUCTURE
     1 HJ8         1 TEMP              0 ****  ****    0 ROOT
