@<TRIPOS>MOLECULE
HJA
   46    46     1     0     0
SMALL
No Charge or Current Charge


@<TRIPOS>ATOM
      1 N01          4.5640     2.4560    -1.1530 n8         1 HJA      -0.990200
      2 C02          5.2410     1.6840    -0.0830 c3         1 HJA       0.146800
      3 C03          4.6610     0.2570     0.0900 c3         1 HJA       0.038700
      4 N04          3.2150     0.2660     0.4410 ns         1 HJA      -0.482900
      5 C05          2.1920     0.0290    -0.4330 c          1 HJA       0.642100
      6 O06          2.3230    -0.2520    -1.6140 o          1 HJA      -0.532000
      7 O07          1.0130     0.1200     0.2400 os         1 HJA      -0.461100
      8 C08         -0.1970    -0.1180    -0.4990 c3         1 HJA       0.186600
      9 C09         -1.3770     0.0440     0.4780 c3         1 HJA      -0.087400
     10 C18          5.4780    -0.5290     1.1440 c          1 HJA       0.605700
     11 O20          5.0640    -0.8230     2.2580 o          1 HJA      -0.495100
     12 C10         -2.7510    -0.1880    -0.1900 c3         1 HJA      -0.073400
     13 C11         -3.9360    -0.0210     0.7910 c3         1 HJA      -0.071400
     14 C12         -5.3450    -0.3490     0.2060 c6         1 HJA      -0.059700
     15 C13         -6.4250    -0.3060     1.3240 c6         1 HJA      -0.071400
     16 C14         -7.8340    -0.6430     0.7750 c6         1 HJA      -0.072900
     17 C15         -8.2210     0.3040    -0.3860 c6         1 HJA      -0.074400
     18 C16         -7.1590     0.2640    -1.5100 c6         1 HJA      -0.072900
     19 C17         -5.7470     0.5960    -0.9660 c6         1 HJA      -0.071400
     20 H012         3.5680     2.5400    -0.9210 hn         1 HJA       0.401500
     21 H1           4.9010     3.4270    -1.1360 hn         1 HJA       0.401500
     22 H021         6.3120     1.6220    -0.3250 h1         1 HJA       0.045700
     23 H022         5.1380     2.2330     0.8640 h1         1 HJA       0.045700
     24 H031         4.7950    -0.2800    -0.8570 h1         1 HJA       0.123700
     25 H041         2.9420     0.4480     1.3990 hn         1 HJA       0.324500
     26 H082        -0.3000     0.6020    -1.3220 h1         1 HJA       0.051700
     27 H081        -0.2040    -1.1330    -0.9200 h1         1 HJA       0.051700
     28 H092        -1.2530    -0.6640     1.3070 hc         1 HJA       0.052700
     29 H091        -1.3490     1.0530     0.9080 hc         1 HJA       0.052700
     30 H101        -2.8580     0.5180    -1.0220 hc         1 HJA       0.042200
     31 H102        -2.7770    -1.1980    -0.6190 hc         1 HJA       0.042200
     32 H112        -3.7500    -0.6710     1.6550 hc         1 HJA       0.038700
     33 H111        -3.9280     1.0050     1.1780 hc         1 HJA       0.038700
     34 H121        -5.2900    -1.3780    -0.1790 hc         1 HJA       0.045700
     35 H132        -6.1680    -1.0160     2.1220 hc         1 HJA       0.037700
     36 H131        -6.4420     0.6900     1.7880 hc         1 HJA       0.037700
     37 H141        -7.8570    -1.6850     0.4280 hc         1 HJA       0.038200
     38 H142        -8.5760    -0.5660     1.5810 hc         1 HJA       0.038200
     39 H152        -9.2020     0.0180    -0.7890 hc         1 HJA       0.038200
     40 H151        -8.3240     1.3310    -0.0090 hc         1 HJA       0.038200
     41 H161        -7.1500    -0.7320    -1.9760 hc         1 HJA       0.038200
     42 H162        -7.4280     0.9750    -2.3030 hc         1 HJA       0.038200
     43 H172        -5.7190     1.6410    -0.6280 hc         1 HJA       0.037700
     44 H171        -5.0250     0.5150    -1.7890 hc         1 HJA       0.037700
     45 S1           7.0260    -1.2210     0.5170 sh         1 HJA      -0.379400
     46 H2           7.2100    -1.9500     1.6410 hs         1 HJA       0.238800
@<TRIPOS>BOND
     1     1     2 1   
     2     1    20 1   
     3     1    21 1   
     4     2     3 1   
     5     2    22 1   
     6     2    23 1   
     7     3     4 1   
     8     3    10 1   
     9     3    24 1   
    10     4     5 1   
    11     4    25 1   
    12     5     6 2   
    13     5     7 1   
    14     7     8 1   
    15     8     9 1   
    16     8    26 1   
    17     8    27 1   
    18     9    12 1   
    19     9    28 1   
    20     9    29 1   
    21    10    11 2   
    22    10    45 1   
    23    12    13 1   
    24    12    30 1   
    25    12    31 1   
    26    13    14 1   
    27    13    32 1   
    28    13    33 1   
    29    14    15 1   
    30    14    19 1   
    31    14    34 1   
    32    15    16 1   
    33    15    35 1   
    34    15    36 1   
    35    16    17 1   
    36    16    37 1   
    37    16    38 1   
    38    17    18 1   
    39    17    39 1   
    40    17    40 1   
    41    18    19 1   
    42    18    41 1   
    43    18    42 1   
    44    19    43 1   
    45    19    44 1   
    46    45    46 1   
@<TRIPOS>SUBSTRUCTURE
     1 HJA         1 TEMP              0 ****  ****    0 ROOT
