@<TRIPOS>MOLECULE
HJA
   46    46     1     0     0
SMALL
abcg2


@<TRIPOS>ATOM
      1 N01          5.0370     2.9410    -0.0270 n8         1 HJA      -0.990200
      2 C02          5.3750     1.6200     0.4670 c3         1 HJA       0.146800
      3 C03          4.4610     0.5700    -0.1730 c3         1 HJA       0.038700
      4 N04          3.1070     0.7870     0.2440 ns         1 HJA      -0.482900
      5 C05          2.0870     0.1390    -0.3660 c          1 HJA       0.642100
      6 O06          2.2110    -0.5420    -1.3610 o          1 HJA      -0.532000
      7 O07          0.9350     0.3710     0.2570 os         1 HJA      -0.461100
      8 C08         -0.2470    -0.2350    -0.2770 c3         1 HJA       0.186600
      9 C09         -1.4290     0.2940     0.5050 c3         1 HJA      -0.087400
     10 C18          4.9280    -0.8360     0.1990 c          1 HJA       0.605700
     11 O20          4.3960    -1.5220     1.0250 o          1 HJA      -0.495100
     12 C10         -2.7440    -0.2870    -0.0040 c3         1 HJA      -0.073400
     13 C11         -3.9460     0.2700     0.7490 c3         1 HJA      -0.071400
     14 C12         -5.2970    -0.2920     0.3090 c6         1 HJA      -0.059700
     15 C13         -6.4040     0.1720     1.2560 c6         1 HJA      -0.071400
     16 C14         -7.7770    -0.3520     0.8470 c6         1 HJA      -0.072900
     17 C15         -8.1110     0.0290    -0.5910 c6         1 HJA      -0.074400
     18 C16         -7.0200    -0.4410    -1.5470 c6         1 HJA      -0.072900
     19 C17         -5.6490     0.0850    -1.1310 c6         1 HJA      -0.071400
     20 H012         4.1630     3.2520     0.3760 hn         1 HJA       0.401500
     21 H1           5.7360     3.5980     0.2930 hn         1 HJA       0.401500
     22 H021         6.4050     1.4010     0.1840 h1         1 HJA       0.045700
     23 H022         5.3210     1.5140     1.5600 h1         1 HJA       0.045700
     24 H031         4.5340     0.6840    -1.2580 h1         1 HJA       0.123700
     25 H041         2.9460     1.1630     1.1670 hn         1 HJA       0.324500
     26 H082        -0.3500     0.0090    -1.3370 h1         1 HJA       0.051700
     27 H081        -0.1770    -1.3230    -0.1880 h1         1 HJA       0.051700
     28 H092        -1.3100     0.0570     1.5670 hc         1 HJA       0.052700
     29 H091        -1.4590     1.3850     0.4230 hc         1 HJA       0.052700
     30 H101        -2.8390    -0.0770    -1.0730 hc         1 HJA       0.042200
     31 H102        -2.7280    -1.3780     0.0930 hc         1 HJA       0.042200
     32 H112        -3.8150     0.0690     1.8190 hc         1 HJA       0.038700
     33 H111        -3.9620     1.3610     0.6480 hc         1 HJA       0.038700
     34 H121        -5.2430    -1.3890     0.3690 hc         1 HJA       0.045700
     35 H132        -6.1720    -0.1410     2.2780 hc         1 HJA       0.037700
     36 H131        -6.4230     1.2690     1.2660 hc         1 HJA       0.037700
     37 H141        -7.7880    -1.4440     0.9410 hc         1 HJA       0.038200
     38 H142        -8.5430     0.0250     1.5290 hc         1 HJA       0.038200
     39 H152        -9.0760    -0.3930    -0.8820 hc         1 HJA       0.038200
     40 H151        -8.2130     1.1180    -0.6640 hc         1 HJA       0.038200
     41 H161        -6.9990    -1.5360    -1.5590 hc         1 HJA       0.038200
     42 H162        -7.2470    -0.1260    -2.5680 hc         1 HJA       0.038200
     43 H172        -5.6390     1.1790    -1.2190 hc         1 HJA       0.037700
     44 H171        -4.8880    -0.2870    -1.8220 hc         1 HJA       0.037700
     45 S1           6.3650    -1.3390    -0.7210 sh         1 HJA      -0.379400
     46 H2           6.5390    -2.5110    -0.0990 hs         1 HJA       0.238800
@<TRIPOS>BOND
     1     1     2 1   
     2     1    20 1   
     3     1    21 1   
     4     2     3 1   
     5     2    22 1   
     6     2    23 1   
     7     3     4 1   
     8     3    10 1   
     9     3    24 1   
    10     4     5 1   
    11     4    25 1   
    12     5     6 2   
    13     5     7 1   
    14     7     8 1   
    15     8     9 1   
    16     8    26 1   
    17     8    27 1   
    18     9    12 1   
    19     9    28 1   
    20     9    29 1   
    21    10    11 2   
    22    10    45 1   
    23    12    13 1   
    24    12    30 1   
    25    12    31 1   
    26    13    14 1   
    27    13    32 1   
    28    13    33 1   
    29    14    15 1   
    30    14    19 1   
    31    14    34 1   
    32    15    16 1   
    33    15    35 1   
    34    15    36 1   
    35    16    17 1   
    36    16    37 1   
    37    16    38 1   
    38    17    18 1   
    39    17    39 1   
    40    17    40 1   
    41    18    19 1   
    42    18    41 1   
    43    18    42 1   
    44    19    43 1   
    45    19    44 1   
    46    45    46 1   
@<TRIPOS>SUBSTRUCTURE
     1 HJA         1 TEMP              0 ****  ****    0 ROOT
