@<TRIPOS>MOLECULE
HJD
   27    27     1     0     0
SMALL
No Charge or Current Charge


@<TRIPOS>ATOM
      1 N1           5.5250    -2.3570    14.0450 na         1 HJD      -0.310500
      2 C2           6.7540    -1.7810    13.8000 cc         1 HJD      -0.206300
      3 N3           9.8900    -3.9380    14.2600 ns         1 HJD      -0.510900
      4 C4           8.0620    -2.2450    14.3850 c3         1 HJD      -0.017100
      5 N4          13.0190    -6.7430    16.2720 n8         1 HJD      -1.006200
      6 C5           8.6150    -3.5020    13.6850 c3         1 HJD       0.103000
      7 C6          10.5780    -5.0590    13.8560 c          1 HJD       0.593100
      8 C1           6.4970    -0.7360    12.9460 cd         1 HJD       0.245900
      9 C3           4.5790    -1.6550    13.3390 cc         1 HJD       0.398400
     10 C7          11.8970    -5.3130    14.5850 c3         1 HJD      -0.158400
     11 C8          11.7590    -6.5070    15.5420 c3         1 HJD       0.155800
     12 N2           5.1460    -0.6660    12.6640 nd         1 HJD      -0.672000
     13 O1          10.1740    -5.7780    12.9540 o          1 HJD      -0.609100
     14 H1           5.3300    -3.1540    14.6400 hn         1 HJD       0.350000
     15 H2          10.3010    -3.3900    15.0070 hn         1 HJD       0.312500
     16 H3           8.8040    -1.4400    14.3110 hc         1 HJD       0.056700
     17 H4           7.9350    -2.4550    15.4540 hc         1 HJD       0.056700
     18 H5          12.9120    -7.5750    16.8660 hn         1 HJD       0.397500
     19 H6          13.7470    -7.0210    15.6020 hn         1 HJD       0.397500
     20 H8           7.8870    -4.3190    13.7760 h1         1 HJD       0.056200
     21 H9           8.7610    -3.2900    12.6180 h1         1 HJD       0.056200
     22 H10          7.2060    -0.0350    12.5210 h4         1 HJD       0.039100
     23 H11          3.5250    -1.9080    13.3600 h5         1 HJD       0.057100
     24 H12         12.6690    -5.5440    13.8420 hc         1 HJD       0.067700
     25 H13         12.1840    -4.4280    15.1640 hc         1 HJD       0.067700
     26 H14         10.9590    -6.3070    16.2700 h1         1 HJD       0.040200
     27 H15         11.4960    -7.4130    14.9770 h1         1 HJD       0.040200
@<TRIPOS>BOND
     1     1     2 1   
     2     1     9 1   
     3     1    14 1   
     4     2     4 1   
     5     2     8 2   
     6     3     6 1   
     7     3     7 1   
     8     3    15 1   
     9     4     6 1   
    10     4    16 1   
    11     4    17 1   
    12     5    11 1   
    13     5    18 1   
    14     5    19 1   
    15     6    20 1   
    16     6    21 1   
    17     7    10 1   
    18     7    13 2   
    19     8    12 1   
    20     8    22 1   
    21     9    12 2   
    22     9    23 1   
    23    10    11 1   
    24    10    24 1   
    25    10    25 1   
    26    11    26 1   
    27    11    27 1   
@<TRIPOS>SUBSTRUCTURE
     1 HJD         1 TEMP              0 ****  ****    0 ROOT
