@<TRIPOS>MOLECULE
HJD
   27    27     1     0     0
SMALL
abcg2


@<TRIPOS>ATOM
      1 N1           5.6250    -2.3300    14.0840 na         1 HJD      -0.310500
      2 C2           6.8190    -1.7420    13.7250 cc         1 HJD      -0.206300
      3 N3           9.8350    -3.9180    14.4050 ns         1 HJD      -0.510900
      4 C4           8.1350    -2.1560    14.2850 c3         1 HJD      -0.017100
      5 N4          12.9670    -6.8680    16.1810 n8         1 HJD      -1.006200
      6 C5           8.5650    -3.5450    13.8060 c3         1 HJD       0.103000
      7 C6          10.6110    -4.9100    13.9290 c          1 HJD       0.593100
      8 C1           6.4730    -0.7980    12.7930 cd         1 HJD       0.245900
      9 C3           4.6320    -1.7340    13.3770 cc         1 HJD       0.398400
     10 C7          11.8570    -5.2190    14.7320 c3         1 HJD      -0.158400
     11 C8          11.7370    -6.5730    15.4360 c3         1 HJD       0.155800
     12 N2           5.1080    -0.7990    12.5820 nd         1 HJD      -0.672000
     13 O1          10.3220    -5.5470    12.9120 o          1 HJD      -0.609100
     14 H1           5.5080    -3.0700    14.7600 hn         1 HJD       0.350000
     15 H2          10.0980    -3.4800    15.2740 hn         1 HJD       0.312500
     16 H3           8.8850    -1.4220    13.9860 hc         1 HJD       0.056700
     17 H4           8.0950    -2.1510    15.3800 hc         1 HJD       0.056700
     18 H5          12.8550    -7.7410    16.6880 hn         1 HJD       0.397500
     19 H6          13.7300    -7.0190    15.5280 hn         1 HJD       0.397500
     20 H8           7.7970    -4.2830    14.0580 h1         1 HJD       0.056200
     21 H9           8.6750    -3.5490    12.7220 h1         1 HJD       0.056200
     22 H10          7.1310    -0.1220    12.2700 h4         1 HJD       0.039100
     23 H11          3.5960    -2.0180    13.4810 h5         1 HJD       0.057100
     24 H12         12.7000    -5.2480    14.0370 hc         1 HJD       0.067700
     25 H13         12.0550    -4.4410    15.4710 hc         1 HJD       0.067700
     26 H14         10.9100    -6.5360    16.1490 h1         1 HJD       0.040200
     27 H15         11.4900    -7.3380    14.6900 h1         1 HJD       0.040200
@<TRIPOS>BOND
     1     1     2 1   
     2     1     9 1   
     3     1    14 1   
     4     2     4 1   
     5     2     8 2   
     6     3     6 1   
     7     3     7 1   
     8     3    15 1   
     9     4     6 1   
    10     4    16 1   
    11     4    17 1   
    12     5    11 1   
    13     5    18 1   
    14     5    19 1   
    15     6    20 1   
    16     6    21 1   
    17     7    10 1   
    18     7    13 2   
    19     8    12 1   
    20     8    22 1   
    21     9    12 2   
    22     9    23 1   
    23    10    11 1   
    24    10    24 1   
    25    10    25 1   
    26    11    26 1   
    27    11    27 1   
@<TRIPOS>SUBSTRUCTURE
     1 HJD         1 TEMP              0 ****  ****    0 ROOT
