@<TRIPOS>MOLECULE
HJF
   48    51     1     0     0
SMALL
No Charge or Current Charge


@<TRIPOS>ATOM
      1 C1          12.6580    -0.9660     3.7550 cc         1 HJF       0.046100
      2 C2          13.9410    -1.0850     4.4640 cc         1 HJF       0.399300
      3 C4          12.8470    -1.7940     6.2500 cd         1 HJF       0.374500
      4 C6          11.4340    -1.2760     4.3470 cd         1 HJF      -0.156000
      5 N3          14.0940    -1.5190     5.7190 nd         1 HJF      -0.635000
      6 C7          12.6030    -2.3240     7.4900 cc         1 HJF      -0.225800
      7 C8          11.1920    -2.5310     7.5020 cc         1 HJF       0.399500
      8 C11         11.3900    -0.4190     1.6840 c3         1 HJF       0.139900
      9 C12         15.1350    -0.6790     3.5930 c5         1 HJF      -0.146000
     10 C13         15.1030     0.8530     3.2730 c5         1 HJF       0.166600
     11 C15         16.9920     0.5870     4.6050 c5         1 HJF       0.173000
     12 C26         17.6890    -1.4110     8.7580 c3         1 HJF       0.151900
     13 C21         15.7950    -2.7760     9.5640 ca         1 HJF       0.583300
     14 C20         14.9310    -2.3000     8.5540 ca         1 HJF      -0.237000
     15 N22         15.3910    -3.6380    10.5110 nb         1 HJF      -0.699000
     16 C23         14.1100    -4.0490    10.4860 ca         1 HJF       0.375900
     17 C24         13.1920    -3.6280     9.5180 ca         1 HJF      -0.211000
     18 C19         13.5930    -2.7410     8.5030 ca         1 HJF       0.081200
     19 N9          10.5340    -2.1540     6.4100 nd         1 HJF      -0.571100
     20 N5          11.5900    -1.6940     5.6630 na         1 HJF       0.144900
     21 O10         12.6140    -0.5450     2.4360 os         1 HJF      -0.323100
     22 C16         16.5570    -0.8640     4.2530 c5         1 HJF      -0.096400
     23 C18         18.5250     0.7780     4.6210 c3         1 HJF      -0.094600
     24 C17         16.4030     1.1350     5.9370 c3         1 HJF      -0.094600
     25 O14         16.4500     1.3190     3.4940 os         1 HJF      -0.450000
     26 H1          10.4370    -1.2410     3.9280 h4         1 HJF       0.170000
     27 H2          10.6130    -2.9690     8.3040 h4         1 HJF       0.052800
     28 H3          11.6060    -0.0700     0.6660 h1         1 HJF       0.050033
     29 H4          10.8760    -1.3850     1.6060 h1         1 HJF       0.050033
     30 H5          10.7150     0.3070     2.1530 h1         1 HJF       0.050033
     31 H6          15.1060    -1.2540     2.6610 hc         1 HJF       0.080700
     32 H7          14.8080     1.0630     2.2360 h1         1 HJF       0.050700
     33 H8          14.4220     1.4010     3.9390 h1         1 HJF       0.050700
     34 H9          18.7470    -1.2540     8.9990 h1         1 HJF       0.042033
     35 H10         17.6260    -1.7480     7.7140 h1         1 HJF       0.042033
     36 H11         17.1740    -0.4460     8.8520 h1         1 HJF       0.042033
     37 H12         15.2990    -1.5810     7.8380 ha         1 HJF       0.141000
     38 H13         13.8100    -4.7450    11.2690 h4         1 HJF       0.019100
     39 H14         12.1800    -4.0170     9.5630 ha         1 HJF       0.121000
     40 H15         16.5800    -1.5320     5.1200 hc         1 HJF       0.066700
     41 H16         17.2510    -1.3010     3.5250 hc         1 HJF       0.066700
     42 H17         18.9900     0.1690     5.4050 hc         1 HJF       0.042367
     43 H18         18.9720     0.4850     3.6640 hc         1 HJF       0.042367
     44 H19         18.7950     1.8250     4.8060 hc         1 HJF       0.042367
     45 H20         16.8460     0.6200     6.7960 hc         1 HJF       0.042367
     46 H21         16.6170     2.2040     6.0510 hc         1 HJF       0.042367
     47 H22         15.3190     1.0060     6.0110 hc         1 HJF       0.042367
     48 O25         17.1130    -2.3820     9.6480 os         1 HJF      -0.447300
@<TRIPOS>BOND
     1     1     2 1   
     2     1     4 2   
     3     1    21 1   
     4     2     5 2   
     5     2     9 1   
     6     3     5 1   
     7     3     6 2   
     8     3    20 1   
     9     4    20 1   
    10     4    26 1   
    11     6     7 1   
    12     6    18 1   
    13     7    19 2   
    14     7    27 1   
    15     8    21 1   
    16     8    28 1   
    17     8    29 1   
    18     8    30 1   
    19     9    10 1   
    20     9    22 1   
    21     9    31 1   
    22    10    25 1   
    23    10    32 1   
    24    10    33 1   
    25    11    22 1   
    26    11    23 1   
    27    11    24 1   
    28    11    25 1   
    29    12    34 1   
    30    12    35 1   
    31    12    36 1   
    32    12    48 1   
    33    13    14 ar  
    34    13    15 ar  
    35    13    48 1   
    36    14    18 ar  
    37    14    37 1   
    38    15    16 ar  
    39    16    17 ar  
    40    16    38 1   
    41    17    18 ar  
    42    17    39 1   
    43    19    20 1   
    44    22    40 1   
    45    22    41 1   
    46    23    42 1   
    47    23    43 1   
    48    23    44 1   
    49    24    45 1   
    50    24    46 1   
    51    24    47 1   
@<TRIPOS>SUBSTRUCTURE
     1 HJF         1 TEMP              0 ****  ****    0 ROOT
