@<TRIPOS>MOLECULE
HJF
   48    51     1     0     0
SMALL
abcg2


@<TRIPOS>ATOM
      1 C1          12.6550    -0.9370     3.7010 cc         1 HJF       0.046100
      2 C2          13.9280    -1.0630     4.3590 cc         1 HJF       0.399300
      3 C4          12.9020    -1.8780     6.2280 cd         1 HJF       0.374500
      4 C6          11.5250    -1.2870     4.3750 cd         1 HJF      -0.156000
      5 N3          14.0130    -1.5230     5.5730 nd         1 HJF      -0.635000
      6 C7          12.6670    -2.4210     7.4980 cc         1 HJF      -0.225800
      7 C8          11.2720    -2.5640     7.5340 cc         1 HJF       0.399500
      8 C11         11.4560    -0.3230     1.7580 c3         1 HJF       0.139900
      9 C12         15.1740    -0.6840     3.6040 c5         1 HJF      -0.146000
     10 C13         15.1820     0.8070     3.1590 c5         1 HJF       0.166600
     11 C15         16.9160     0.6280     4.6520 c5         1 HJF       0.173000
     12 C26         17.6260    -1.5420     8.5930 c3         1 HJF       0.151900
     13 C21         15.8110    -2.7630     9.5140 ca         1 HJF       0.583300
     14 C20         14.9480    -2.3550     8.4960 ca         1 HJF      -0.237000
     15 N22         15.4410    -3.5380    10.5200 nb         1 HJF      -0.699000
     16 C23         14.1760    -3.9400    10.5490 ca         1 HJF       0.375900
     17 C24         13.2340    -3.6050     9.5970 ca         1 HJF      -0.211000
     18 C19         13.6230    -2.7880     8.5290 ca         1 HJF       0.081200
     19 N9          10.6740    -2.1630     6.4240 nd         1 HJF      -0.571100
     20 N5          11.6710    -1.7560     5.6410 na         1 HJF       0.144900
     21 O10         12.6850    -0.4780     2.4450 os         1 HJF      -0.323100
     22 C16         16.4840    -0.8190     4.3880 c5         1 HJF      -0.096400
     23 C18         18.4240     0.7840     4.7240 c3         1 HJF      -0.094600
     24 C17         16.2630     1.2010     5.9100 c3         1 HJF      -0.094600
     25 O14         16.4500     1.3150     3.4950 os         1 HJF      -0.450000
     26 H1          10.5160    -1.2380     3.9930 h4         1 HJF       0.170000
     27 H2          10.6690    -2.9420     8.3460 h4         1 HJF       0.052800
     28 H3          11.7010     0.0520     0.7690 h1         1 HJF       0.050033
     29 H4          10.9290    -1.2750     1.6590 h1         1 HJF       0.050033
     30 H5          10.8040     0.3970     2.2610 h1         1 HJF       0.050033
     31 H6          15.2050    -1.3190     2.7140 hc         1 HJF       0.080700
     32 H7          15.0420     0.9190     2.0840 h1         1 HJF       0.050700
     33 H8          14.3840     1.3710     3.6570 h1         1 HJF       0.050700
     34 H9          18.6740    -1.3930     8.8400 h1         1 HJF       0.042033
     35 H10         17.5600    -1.9660     7.5870 h1         1 HJF       0.042033
     36 H11         17.1220    -0.5730     8.6030 h1         1 HJF       0.042033
     37 H12         15.2850    -1.7200     7.6900 ha         1 HJF       0.141000
     38 H13         13.8960    -4.5750    11.3820 h4         1 HJF       0.019100
     39 H14         12.2280    -3.9890     9.6850 ha         1 HJF       0.121000
     40 H15         16.3830    -1.3990     5.3040 hc         1 HJF       0.066700
     41 H16         17.2300    -1.3150     3.7650 hc         1 HJF       0.066700
     42 H17         18.8190     0.2120     5.5640 hc         1 HJF       0.042367
     43 H18         18.9010     0.4190     3.8130 hc         1 HJF       0.042367
     44 H19         18.7100     1.8270     4.8700 hc         1 HJF       0.042367
     45 H20         16.6310     0.6870     6.7970 hc         1 HJF       0.042367
     46 H21         16.5010     2.2610     6.0150 hc         1 HJF       0.042367
     47 H22         15.1770     1.0990     5.9060 hc         1 HJF       0.042367
     48 O25         17.1020    -2.4130     9.5760 os         1 HJF      -0.447300
@<TRIPOS>BOND
     1     1     2 1   
     2     1     4 2   
     3     1    21 1   
     4     2     5 2   
     5     2     9 1   
     6     3     5 1   
     7     3     6 2   
     8     3    20 1   
     9     4    20 1   
    10     4    26 1   
    11     6     7 1   
    12     6    18 1   
    13     7    19 2   
    14     7    27 1   
    15     8    21 1   
    16     8    28 1   
    17     8    29 1   
    18     8    30 1   
    19     9    10 1   
    20     9    22 1   
    21     9    31 1   
    22    10    25 1   
    23    10    32 1   
    24    10    33 1   
    25    11    22 1   
    26    11    23 1   
    27    11    24 1   
    28    11    25 1   
    29    12    34 1   
    30    12    35 1   
    31    12    36 1   
    32    12    48 1   
    33    13    14 ar  
    34    13    15 ar  
    35    13    48 1   
    36    14    18 ar  
    37    14    37 1   
    38    15    16 ar  
    39    16    17 ar  
    40    16    38 1   
    41    17    18 ar  
    42    17    39 1   
    43    19    20 1   
    44    22    40 1   
    45    22    41 1   
    46    23    42 1   
    47    23    43 1   
    48    23    44 1   
    49    24    45 1   
    50    24    46 1   
    51    24    47 1   
@<TRIPOS>SUBSTRUCTURE
     1 HJF         1 TEMP              0 ****  ****    0 ROOT
