@<TRIPOS>MOLECULE
HJG
   41    44     1     0     0
SMALL
abcg2


@<TRIPOS>ATOM
      1 C13         -3.3300     0.8220    -1.1140 ca         1 HJG      -0.103500
      2 C18          0.3150    -1.3930    -0.3440 cc         1 HJG       0.343800
      3 C17         -1.3340    -3.3100    -0.4730 cx         1 HJG      -0.099400
      4 C16         -1.0300    -3.1040     0.9720 cx         1 HJG      -0.099400
      5 C22          5.2640    -0.2800    -0.6900 c3         1 HJG      -0.103600
      6 C23          4.0490     1.6280    -1.7970 c3         1 HJG      -0.103600
      7 C11         -3.8640     0.3070     1.1820 ca         1 HJG      -0.103500
      8 C12         -4.0880     1.0380     0.0290 ca         1 HJG       0.123000
      9 CL1         -5.3330     2.2450     0.0090 cl         1 HJG      -0.201000
     10 C2           3.1580     0.6030     0.3110 cc         1 HJG      -0.076300
     11 C3           2.9120     1.0540     1.5740 cd         1 HJG      -0.088000
     12 C4           1.7310     0.7000     2.2880 cd         1 HJG      -0.145000
     13 C5           0.8060    -0.1070     1.7290 cc         1 HJG      -0.091000
     14 N6           1.0450    -0.5690     0.4640 na         1 HJG       0.027200
     15 C7           2.1730    -0.2560    -0.2590 cc         1 HJG      -0.093000
     16 C8          -1.0050    -1.9300     0.0270 cx         1 HJG      -0.100000
     17 C9          -2.0930    -0.8990     0.0570 ca         1 HJG      -0.056300
     18 C10         -2.8630    -0.6560     1.1880 ca         1 HJG      -0.092000
     19 C14         -2.3390    -0.1440    -1.0900 ca         1 HJG      -0.092000
     20 N19          0.9630    -1.5610    -1.4640 nd         1 HJG      -0.350700
     21 N20          2.1140    -0.8690    -1.4250 nd         1 HJG      -0.109000
     22 O21          5.2160     1.8500     0.2970 oh         1 HJG      -0.658000
     23 H35         -3.5110     1.3980    -2.0110 ha         1 HJG       0.131500
     24 H40         -0.6030    -3.8100    -1.0940 hc         1 HJG       0.084200
     25 H39         -2.3630    -3.4880    -0.7560 hc         1 HJG       0.084200
     26 H37         -1.8410    -3.1710     1.6850 hc         1 HJG       0.084200
     27 H38         -0.0790    -3.4570     1.3500 hc         1 HJG       0.084200
     28 H24          4.7120    -1.0300    -1.2510 hc         1 HJG       0.052033
     29 H25          6.1630    -0.0260    -1.2550 hc         1 HJG       0.052033
     30 H26          5.5680    -0.7190     0.2610 hc         1 HJG       0.052033
     31 H29          3.4310     2.5150    -1.6370 hc         1 HJG       0.052033
     32 H27          4.9570     1.9360    -2.3190 hc         1 HJG       0.052033
     33 H28          3.4970     0.9480    -2.4420 hc         1 HJG       0.052033
     34 H34         -4.4560     0.4820     2.0700 ha         1 HJG       0.131500
     35 H30          3.6280     1.6960     2.0660 ha         1 HJG       0.135000
     36 H31          1.5690     1.0770     3.2870 ha         1 HJG       0.134000
     37 H32         -0.1070    -0.4230     2.2100 h4         1 HJG       0.154000
     38 H33         -2.6920    -1.2190     2.0970 ha         1 HJG       0.124500
     39 H36         -1.7500    -0.3140    -1.9830 ha         1 HJG       0.124500
     40 H41          4.8140     2.7260     0.2850 ho         1 HJG       0.442000
     41 C15          4.4170     0.9710    -0.4650 c3         1 HJG       0.245300
@<TRIPOS>BOND
     1     1     8 ar  
     2     1    19 ar  
     3     1    23 1   
     4     2    14 1   
     5     2    16 1   
     6     2    20 2   
     7     3     4 1   
     8     3    16 1   
     9     3    24 1   
    10     3    25 1   
    11     4    16 1   
    12     4    26 1   
    13     4    27 1   
    14     5    28 1   
    15     5    29 1   
    16     5    30 1   
    17     5    41 1   
    18     6    31 1   
    19     6    32 1   
    20     6    33 1   
    21     6    41 1   
    22     7     8 ar  
    23     7    18 ar  
    24     7    34 1   
    25     8     9 1   
    26    10    11 2   
    27    10    15 1   
    28    10    41 1   
    29    11    12 1   
    30    11    35 1   
    31    12    13 2   
    32    12    36 1   
    33    13    14 1   
    34    13    37 1   
    35    14    15 1   
    36    15    21 2   
    37    16    17 1   
    38    17    18 ar  
    39    17    19 ar  
    40    18    38 1   
    41    19    39 1   
    42    20    21 1   
    43    22    40 1   
    44    22    41 1   
@<TRIPOS>SUBSTRUCTURE
     1 HJG         1 TEMP              0 ****  ****    0 ROOT
