@<TRIPOS>MOLECULE
HJG
   41    44     1     0     0
SMALL
No Charge or Current Charge


@<TRIPOS>ATOM
      1 C13         -3.5870     0.6100    -1.2670 ca         1 HJG      -0.103500
      2 C18          0.2500    -1.3400    -0.3270 cc         1 HJG       0.343800
      3 C17         -1.3590    -3.3470    -0.4360 cx         1 HJG      -0.099400
      4 C16         -1.0730    -3.0890     1.0220 cx         1 HJG      -0.099400
      5 C22          5.3310    -0.2600    -0.7950 c3         1 HJG      -0.103600
      6 C23          4.1170     1.7780    -1.7300 c3         1 HJG      -0.103600
      7 C11         -3.7640     0.5360     1.1570 ca         1 HJG      -0.103500
      8 C12         -4.1790     1.0600    -0.0770 ca         1 HJG       0.123000
      9 Cl1         -5.4430     2.2820    -0.1310 cl         1 HJG      -0.201000
     10 C2           3.2300     0.5940     0.3550 cc         1 HJG      -0.076300
     11 C3           3.0060     0.9580     1.6760 cd         1 HJG      -0.088000
     12 C4           1.8100     0.5350     2.3680 cd         1 HJG      -0.145000
     13 C5           0.8180    -0.2400     1.7800 cc         1 HJG      -0.091000
     14 N6           1.0740    -0.5650     0.4470 na         1 HJG       0.027200
     15 C7           2.1960    -0.2150    -0.2360 cc         1 HJG      -0.093000
     16 C8          -1.0610    -1.9360     0.0340 cx         1 HJG      -0.100000
     17 C9          -2.1510    -0.8980     0.0120 ca         1 HJG      -0.056300
     18 C10         -2.7530    -0.4410     1.2030 ca         1 HJG      -0.092000
     19 C14         -2.5760    -0.3660    -1.2220 ca         1 HJG      -0.092000
     20 N19          0.8850    -1.4560    -1.4910 nd         1 HJG      -0.350700
     21 N20          2.0850    -0.7570    -1.4360 nd         1 HJG      -0.109000
     22 O21          5.3200     1.8430     0.3180 oh         1 HJG      -0.658000
     23 H35         -3.9100     1.0170    -2.2210 ha         1 HJG       0.131500
     24 H40         -0.6010    -3.8710    -1.0130 hc         1 HJG       0.084200
     25 H39         -2.3830    -3.5830    -0.7160 hc         1 HJG       0.084200
     26 H37         -1.9070    -3.1740     1.7140 hc         1 HJG       0.084200
     27 H38         -0.1200    -3.4330     1.4180 hc         1 HJG       0.084200
     28 H24          4.7960    -0.9410    -1.4650 hc         1 HJG       0.052033
     29 H25          6.2640     0.0330    -1.2920 hc         1 HJG       0.052033
     30 H26          5.5890    -0.8130     0.1160 hc         1 HJG       0.052033
     31 H29          3.4630     2.6250    -1.4890 hc         1 HJG       0.052033
     32 H27          5.0200     2.1690    -2.2130 hc         1 HJG       0.052033
     33 H28          3.6010     1.1510    -2.4640 hc         1 HJG       0.052033
     34 H34         -4.2250     0.8850     2.0780 ha         1 HJG       0.131500
     35 H30          3.7300     1.5550     2.2200 ha         1 HJG       0.135000
     36 H31          1.6810     0.8350     3.4040 ha         1 HJG       0.134000
     37 H32         -0.0880    -0.5910     2.2530 h4         1 HJG       0.154000
     38 H33         -2.4440    -0.8390     2.1660 ha         1 HJG       0.124500
     39 H36         -2.1210    -0.7110    -2.1490 ha         1 HJG       0.124500
     40 H41          4.8220     2.6770     0.4490 ho         1 HJG       0.442000
     41 C15          4.4770     0.9820    -0.4520 c3         1 HJG       0.245300
@<TRIPOS>BOND
     1     1     8 ar  
     2     1    19 ar  
     3     1    23 1   
     4     2    14 1   
     5     2    16 1   
     6     2    20 2   
     7     3     4 1   
     8     3    16 1   
     9     3    24 1   
    10     3    25 1   
    11     4    16 1   
    12     4    26 1   
    13     4    27 1   
    14     5    28 1   
    15     5    29 1   
    16     5    30 1   
    17     5    41 1   
    18     6    31 1   
    19     6    32 1   
    20     6    33 1   
    21     6    41 1   
    22     7     8 ar  
    23     7    18 ar  
    24     7    34 1   
    25     8     9 1   
    26    10    11 2   
    27    10    15 1   
    28    10    41 1   
    29    11    12 1   
    30    11    35 1   
    31    12    13 2   
    32    12    36 1   
    33    13    14 1   
    34    13    37 1   
    35    14    15 1   
    36    15    21 2   
    37    16    17 1   
    38    17    18 ar  
    39    17    19 ar  
    40    18    38 1   
    41    19    39 1   
    42    20    21 1   
    43    22    40 1   
    44    22    41 1   
@<TRIPOS>SUBSTRUCTURE
     1 HJG         1 TEMP              0 ****  ****    0 ROOT
