@<TRIPOS>MOLECULE
HJH
   22    22     1     0     0
SMALL
abcg2


@<TRIPOS>ATOM
      1 N1           2.7550    -0.7970    -0.0750 nc         1 HJH      -0.617800
      2 N3           1.5780     0.9600     0.5840 nc         1 HJH      -0.504800
      3 C4           1.5140    -1.1790     0.1380 cd         1 HJH       0.445300
      4 C6          -3.0500     0.1770     0.0250 c          1 HJH       0.722000
      5 C1          -1.5630     0.2100    -0.4010 c3         1 HJH       0.025500
      6 C3           0.7520    -0.0800     0.5600 cd         1 HJH       0.237300
      7 N2           2.7390     0.4920     0.2100 na         1 HJH       0.219600
      8 N4          -1.2530     1.4210    -1.1350 n8         1 HJH      -0.994200
      9 O3           1.0670    -2.4260    -0.0240 oh         1 HJH      -0.609300
     10 H1          -1.3890    -0.6500    -1.0580 h1         1 HJH       0.050700
     11 H7          -1.6730     2.2060    -0.6530 hn         1 HJH       0.382500
     12 H8          -0.2540     1.5850    -1.1500 hn         1 HJH       0.382500
     13 H10          1.7900    -3.0050    -0.2940 ho         1 HJH       0.463000
     14 C5           3.9100     1.3170     0.0640 c3         1 HJH       0.102900
     15 C2          -0.7000    -0.0040     0.8650 c3         1 HJH      -0.130700
     16 O1          -3.4920    -0.9370     0.3660 o          1 HJH      -0.728500
     17 H4           4.7390     0.8970     0.6300 h1         1 HJH       0.050033
     18 H6           4.1960     1.3960    -0.9840 h1         1 HJH       0.050033
     19 H5           3.6790     2.3060     0.4470 h1         1 HJH       0.050033
     20 H3          -0.8820     0.8160     1.5660 hc         1 HJH       0.065700
     21 H2          -1.0160    -0.9250     1.3580 hc         1 HJH       0.065700
     22 O2          -3.6670     1.2600     0.0350 o          1 HJH      -0.728500
@<TRIPOS>BOND
     1     1     3 2   
     2     1     7 1   
     3     2     6 2   
     4     2     7 1   
     5     3     6 1   
     6     3     9 1   
     7     4     5 1   
     8     4    16 1   
     9     4    22 1   
    10     5     8 1   
    11     5    10 1   
    12     5    15 1   
    13     6    15 1   
    14     7    14 1   
    15     8    11 1   
    16     8    12 1   
    17     9    13 1   
    18    14    17 1   
    19    14    18 1   
    20    14    19 1   
    21    15    20 1   
    22    15    21 1   
@<TRIPOS>SUBSTRUCTURE
     1 HJH         1 TEMP              0 ****  ****    0 ROOT
