@<TRIPOS>MOLECULE
HJH
   22    22     1     0     0
SMALL
No Charge or Current Charge


@<TRIPOS>ATOM
      1 N1           2.7550    -0.8990     0.0000 nc         1 HJH      -0.617800
      2 N3           1.5640     1.0720     0.5030 nc         1 HJH      -0.504800
      3 C4           1.4960    -1.1470     0.2320 cd         1 HJH       0.445300
      4 C6          -3.1390    -0.0140    -0.0070 c          1 HJH       0.722000
      5 C1          -1.6160     0.2100    -0.3920 c3         1 HJH       0.025500
      6 C3           0.7620     0.0250     0.5360 cd         1 HJH       0.237300
      7 N2           2.7700     0.4750     0.1750 na         1 HJH       0.219600
      8 N4          -1.3000     1.4520    -1.1840 n8         1 HJH      -0.994200
      9 O3           1.0360    -2.4040     0.1690 oh         1 HJH      -0.609300
     10 H1          -1.3360    -0.6460    -1.0220 h1         1 HJH       0.050700
     11 H7          -1.6840     2.2640    -0.6840 hn         1 HJH       0.382500
     12 H8          -0.2850     1.6130    -1.1550 hn         1 HJH       0.382500
     13 H10          1.8320    -2.9240    -0.0650 ho         1 HJH       0.463000
     14 C5           4.0040     1.2640     0.0130 c3         1 HJH       0.102900
     15 C2          -0.7070     0.1530     0.8620 c3         1 HJH      -0.130700
     16 O1          -3.7090    -1.0060    -0.4440 o          1 HJH      -0.728500
     17 H4           4.8720     0.6560     0.2960 h1         1 HJH       0.050033
     18 H6           4.1020     1.5750    -1.0330 h1         1 HJH       0.050033
     19 H5           3.9620     2.1530     0.6550 h1         1 HJH       0.050033
     20 H3          -0.8860     1.0350     1.4900 hc         1 HJH       0.065700
     21 H2          -1.0070    -0.7110     1.4680 hc         1 HJH       0.065700
     22 O2          -3.7060     0.8430     0.6620 o          1 HJH      -0.728500
@<TRIPOS>BOND
     1     1     3 2   
     2     1     7 1   
     3     2     6 2   
     4     2     7 1   
     5     3     6 1   
     6     3     9 1   
     7     4     5 1   
     8     4    16 1   
     9     4    22 1   
    10     5     8 1   
    11     5    10 1   
    12     5    15 1   
    13     6    15 1   
    14     7    14 1   
    15     8    11 1   
    16     8    12 1   
    17     9    13 1   
    18    14    17 1   
    19    14    18 1   
    20    14    19 1   
    21    15    20 1   
    22    15    21 1   
@<TRIPOS>SUBSTRUCTURE
     1 HJH         1 TEMP              0 ****  ****    0 ROOT
