@<TRIPOS>MOLECULE
HJI
   52    53     1     0     0
SMALL
bcc


@<TRIPOS>ATOM
      1 C10          8.5820     3.6700    15.0980 ca         1 HJI      -0.252500
      2 C13          8.5080     0.8030    12.8590 c3         1 HJI      -0.072400
      3 C17          6.9460    -2.4620    15.2200 ca         1 HJI      -0.227000
      4 C20          4.2080    -2.7490    14.9460 ca         1 HJI      -0.071000
      5 C21          4.8360    -1.6940    14.2990 ca         1 HJI      -0.069300
      6 C22          4.0560    -0.7170    13.4670 c3         1 HJI      -0.002100
      7 C24          3.0940     1.5700    13.2910 c3         1 HJI       0.423900
      8 C01          5.1530     3.4990    16.1760 c3         1 HJI      -0.092100
      9 C02          6.5770     3.0590    16.4980 c3         1 HJI      -0.134700
     10 C03          7.6000     4.0330    15.9930 ca         1 HJI       0.522600
     11 C05          8.3970     6.1620    16.0090 ca         1 HJI       0.918900
     12 C08          9.4940     4.6730    14.6980 ca         1 HJI       0.715200
     13 C12          8.0430     2.1430    13.3910 c3         1 HJI       0.126400
     14 C14          8.1900    -0.3830    13.7460 c3         1 HJI       0.148400
     15 C16          6.2250    -1.5540    14.4500 ca         1 HJI       0.142100
     16 C18          6.2870    -3.5090    15.8550 ca         1 HJI      -0.111000
     17 C19          4.9170    -3.6580    15.7250 ca         1 HJI      -0.167000
     18 C23          3.7180     0.5740    14.2330 c3         1 HJI      -0.258700
     19 C27          2.7360     0.2650    15.3920 c          1 HJI       0.938600
     20 N04          7.5080     5.2860    16.4570 nb         1 HJI      -0.796000
     21 N06          8.3210     7.4280    16.4980 nv         1 HJI      -0.945500
     22 N07          9.3920     5.9140    15.1560 nb         1 HJI      -0.862000
     23 N09         10.4770     4.3980    13.8180 nv         1 HJI      -0.959500
     24 O11          8.7320     2.4020    14.6130 os         1 HJI      -0.332900
     25 O15          6.7810    -0.5080    13.8070 os         1 HJI      -0.320900
     26 O28          3.1630     0.3990    16.5520 o          1 HJI      -0.826300
     27 O29          1.6000    -0.1110    15.0420 o          1 HJI      -0.826300
     28 H1           8.0610     0.6480    11.8730 hc         1 HJI       0.046700
     29 H2           9.5900     0.8330    12.7040 hc         1 HJI       0.046700
     30 H3           8.0180    -2.3680    15.3370 ha         1 HJI       0.117000
     31 H4           3.1360    -2.8610    14.8330 ha         1 HJI       0.150000
     32 H5           3.1250    -1.1860    13.1430 hc         1 HJI       0.039700
     33 H6           4.6150    -0.4780    12.5600 hc         1 HJI       0.039700
     34 H7           2.2280     1.1790    12.7550 h2         1 HJI       0.057700
     35 H8           4.4390     2.7500    16.5160 hc         1 HJI       0.051700
     36 H9           4.9130     4.4470    16.6560 hc         1 HJI       0.051700
     37 H10          5.0160     3.6220    15.1020 hc         1 HJI       0.051700
     38 H11          6.7600     2.0640    16.0900 hc         1 HJI       0.065700
     39 H12          6.6940     2.9760    17.5830 hc         1 HJI       0.065700
     40 H13          8.2660     2.9240    12.6560 h1         1 HJI       0.048700
     41 H14          6.9600     2.1540    13.5570 h1         1 HJI       0.048700
     42 H15          8.6340    -1.2900    13.3220 h1         1 HJI       0.031200
     43 H16          8.6130    -0.2490    14.7480 h1         1 HJI       0.031200
     44 H17          6.8590    -4.2080    16.4530 ha         1 HJI       0.109000
     45 H18          4.4020    -4.4720    16.2160 ha         1 HJI       0.120000
     46 H19          4.6380     1.0120    14.6300 hc         1 HJI       0.066700
     47 H20          8.7990     8.1510    15.9870 hn         1 HJI       0.422300
     48 H21          7.4530     7.7020    16.9250 hn         1 HJI       0.422300
     49 H22         11.2060     5.0810    13.6990 hn         1 HJI       0.427800
     50 H23         10.7340     3.4400    13.6490 hn         1 HJI       0.427800
     51 F25          2.6990     2.6940    13.9660 f          1 HJI      -0.274300
     52 F26          4.0030     2.0070    12.3620 f          1 HJI      -0.274300
@<TRIPOS>BOND
     1     1    10 ar  
     2     1    12 ar  
     3     1    24 1   
     4     2    13 1   
     5     2    14 1   
     6     2    28 1   
     7     2    29 1   
     8     3    15 ar  
     9     3    16 ar  
    10     3    30 1   
    11     4     5 ar  
    12     4    17 ar  
    13     4    31 1   
    14     5     6 1   
    15     5    15 ar  
    16     6    18 1   
    17     6    32 1   
    18     6    33 1   
    19     7    18 1   
    20     7    34 1   
    21     7    51 1   
    22     7    52 1   
    23     8     9 1   
    24     8    35 1   
    25     8    36 1   
    26     8    37 1   
    27     9    10 1   
    28     9    38 1   
    29     9    39 1   
    30    10    20 ar  
    31    11    20 ar  
    32    11    21 1   
    33    11    22 ar  
    34    12    22 ar  
    35    12    23 1   
    36    13    24 1   
    37    13    40 1   
    38    13    41 1   
    39    14    25 1   
    40    14    42 1   
    41    14    43 1   
    42    15    25 1   
    43    16    17 ar  
    44    16    44 1   
    45    17    45 1   
    46    18    19 1   
    47    18    46 1   
    48    19    26 1   
    49    19    27 1   
    50    21    47 1   
    51    21    48 1   
    52    23    49 1   
    53    23    50 1   
@<TRIPOS>SUBSTRUCTURE
     1 HJI         1 TEMP              0 ****  ****    0 ROOT
