@<TRIPOS>MOLECULE
HJI
   52    53     1     0     0
SMALL
No Charge or Current Charge


@<TRIPOS>ATOM
      1 C10          8.7320     3.7870    15.0340 ca         1 HJI      -0.121900
      2 C13          8.4090     0.8880    12.7230 c3         1 HJI      -0.072400
      3 C17          6.9820    -2.4140    15.2720 ca         1 HJI      -0.209000
      4 C20          4.2130    -2.8490    15.0890 ca         1 HJI      -0.053000
      5 C21          4.7960    -1.7870    14.3690 ca         1 HJI      -0.069300
      6 C22          3.9120    -0.8970    13.4960 c3         1 HJI      -0.002100
      7 C24          2.7940     1.4130    13.2790 c3         1 HJI       0.181300
      8 C01          5.1850     3.5870    15.6870 c3         1 HJI      -0.092100
      9 C02          6.5440     3.1700    16.2870 c3         1 HJI      -0.134700
     10 C03          7.6750     4.1260    15.9150 ca         1 HJI       0.194300
     11 C05          8.6470     6.1750    16.2340 ca         1 HJI       0.392900
     12 C08          9.7300     4.7660    14.8370 ca         1 HJI       0.386900
     13 C12          7.9600     2.2430    13.3040 c3         1 HJI       0.149600
     14 C14          8.1650    -0.3090    13.6650 c3         1 HJI       0.171600
     15 C16          6.1910    -1.5670    14.4610 ca         1 HJI       0.142100
     16 C18          6.3870    -3.4670    15.9860 ca         1 HJI      -0.093000
     17 C19          5.0050    -3.6840    15.8940 ca         1 HJI      -0.149000
     18 C23          3.4630     0.3970    14.2290 c3         1 HJI      -0.258700
     19 C27          2.5160     0.0740    15.3940 c          1 HJI       0.728000
     20 N04          7.6420     5.3350    16.5170 nb         1 HJI      -0.270000
     21 N06          8.6050     7.3850    16.8370 nv         1 HJI      -1.055900
     22 N07          9.6930     5.9630    15.4310 nb         1 HJI      -0.336000
     23 N09         10.8050     4.5590    14.0290 nv         1 HJI      -1.069900
     24 O11          8.8220     2.5530    14.4140 os         1 HJI      -0.356100
     25 O15          6.7470    -0.5240    13.7430 os         1 HJI      -0.344100
     26 O28          2.8780     0.3590    16.5250 o          1 HJI      -0.721000
     27 O29          1.4420    -0.4510    15.1420 o          1 HJI      -0.721000
     28 H1           7.8840     0.7110    11.7770 hc         1 HJI       0.046700
     29 H2           9.4770     0.9400    12.4820 hc         1 HJI       0.046700
     30 H3           8.0540    -2.2680    15.3640 ha         1 HJI       0.099000
     31 H4           3.1410    -3.0250    15.0270 ha         1 HJI       0.132000
     32 H5           3.0280    -1.4510    13.1560 hc         1 HJI       0.039700
     33 H6           4.4540    -0.6320    12.5800 hc         1 HJI       0.039700
     34 H7           1.9120     0.9770    12.7950 h2         1 HJI       0.057700
     35 H8           4.3970     2.8970    16.0110 hc         1 HJI       0.051700
     36 H9           4.9050     4.5950    16.0140 hc         1 HJI       0.051700
     37 H10          5.2220     3.5780    14.5910 hc         1 HJI       0.051700
     38 H11          6.7760     2.1450    15.9750 hc         1 HJI       0.065700
     39 H12          6.4460     3.1300    17.3790 hc         1 HJI       0.065700
     40 H13          8.0510     3.0130    12.5270 h1         1 HJI       0.048700
     41 H14          6.9090     2.1910    13.6120 h1         1 HJI       0.048700
     42 H15          8.6610    -1.1960    13.2500 h1         1 HJI       0.031200
     43 H16          8.5910    -0.1010    14.6550 h1         1 HJI       0.031200
     44 H17          6.9990    -4.1160    16.6100 ha         1 HJI       0.091000
     45 H18          4.5450    -4.5000    16.4470 ha         1 HJI       0.102000
     46 H19          4.3600     0.8700    14.6430 hc         1 HJI       0.066700
     47 H20          9.2200     8.1170    16.4920 hn         1 HJI       0.477500
     48 H21          7.7390     7.6790    17.2810 hn         1 HJI       0.477500
     49 H22         11.6050     5.1800    14.1230 hn         1 HJI       0.483000
     50 H23         10.9920     3.6050    13.7330 hn         1 HJI       0.483000
     51 F25          2.4230     2.5200    13.9630 f          1 HJI      -0.153000
     52 F26          3.6710     1.8160    12.3300 f          1 HJI      -0.153000
@<TRIPOS>BOND
     1     1    10 ar  
     2     1    12 ar  
     3     1    24 1   
     4     2    13 1   
     5     2    14 1   
     6     2    28 1   
     7     2    29 1   
     8     3    15 ar  
     9     3    16 ar  
    10     3    30 1   
    11     4     5 ar  
    12     4    17 ar  
    13     4    31 1   
    14     5     6 1   
    15     5    15 ar  
    16     6    18 1   
    17     6    32 1   
    18     6    33 1   
    19     7    18 1   
    20     7    34 1   
    21     7    51 1   
    22     7    52 1   
    23     8     9 1   
    24     8    35 1   
    25     8    36 1   
    26     8    37 1   
    27     9    10 1   
    28     9    38 1   
    29     9    39 1   
    30    10    20 ar  
    31    11    20 ar  
    32    11    21 1   
    33    11    22 ar  
    34    12    22 ar  
    35    12    23 1   
    36    13    24 1   
    37    13    40 1   
    38    13    41 1   
    39    14    25 1   
    40    14    42 1   
    41    14    43 1   
    42    15    25 1   
    43    16    17 ar  
    44    16    44 1   
    45    17    45 1   
    46    18    19 1   
    47    18    46 1   
    48    19    26 1   
    49    19    27 1   
    50    21    47 1   
    51    21    48 1   
    52    23    49 1   
    53    23    50 1   
@<TRIPOS>SUBSTRUCTURE
     1 HJI         1 TEMP              0 ****  ****    0 ROOT
