@<TRIPOS>MOLECULE
HJJ
   47    49     1     0     0
SMALL
No Charge or Current Charge


@<TRIPOS>ATOM
      1 C10          1.7350    -0.3390    -0.2140 ca         1 HJJ       0.221100
      2 C13          3.3490     3.0440    -0.2510 cc         1 HJJ      -0.333200
      3 C17          4.0920     0.3450    -0.2540 ca         1 HJJ       0.200100
      4 C20          2.1690    -1.6760    -0.2330 ca         1 HJJ      -0.169800
      5 C21          1.4460    -2.9380    -0.2860 cc         1 HJJ      -0.213200
      6 C22          2.4300    -3.9170    -0.3110 cd         1 HJJ      -0.073900
      7 C24         -2.8660    -0.8620     2.7810 c3         1 HJJ      -0.062900
      8 C01         -5.9560     0.7610    -2.1920 c3         1 HJJ      -0.057900
      9 C02         -6.8890     0.6620    -0.9930 c2         1 HJJ      -0.105400
     10 C03         -6.5700     0.1270     0.2010 c2         1 HJJ      -0.230200
     11 C04         -5.2540    -0.5110     0.6060 c3         1 HJJ      -0.033200
     12 C05         -4.2480     0.5240     1.1530 c3         1 HJJ      -0.044200
     13 C06         -2.8870    -0.0750     1.4770 c2         1 HJJ      -0.074400
     14 C07         -1.8170     0.1060     0.6810 c2         1 HJJ      -0.240200
     15 C08         -0.4190    -0.4290     0.9100 c3         1 HJJ       0.207800
     16 C11          2.7160     0.6820    -0.2370 ca         1 HJJ      -0.198800
     17 C12          2.3520     2.0980    -0.2350 cd         1 HJJ      -0.054200
     18 C14          4.7740     2.6760    -0.2700 c          1 HJJ       0.674300
     19 C18          4.5050    -1.0000    -0.2570 ca         1 HJJ      -0.145000
     20 C19          3.5110    -1.9790    -0.2500 ca         1 HJJ       0.117100
     21 C25         -8.2590     1.2480    -1.2810 c3         1 HJJ      -0.057900
     22 O09          0.4000    -0.0090    -0.1910 os         1 HJJ      -0.364100
     23 O15          5.6640     3.5120    -0.2850 o          1 HJJ      -0.480000
     24 O16          5.0490     1.3320    -0.2700 os         1 HJJ      -0.341200
     25 O23          3.6720    -3.3300    -0.2840 os         1 HJJ      -0.168200
     26 H131         3.1410     4.1080    -0.2500 ha         1 HJJ       0.215000
     27 H211         0.3720    -3.1090    -0.3350 ha         1 HJJ       0.222000
     28 H221         2.3740    -5.0020    -0.3620 h4         1 HJJ       0.243000
     29 H243        -3.5360    -1.7280     2.7340 hc         1 HJJ       0.044033
     30 H242        -1.8690    -1.2410     3.0270 hc         1 HJJ       0.044033
     31 H241        -3.1890    -0.2360     3.6210 hc         1 HJJ       0.044033
     32 H012        -4.9460     0.3960    -1.9780 hc         1 HJJ       0.040033
     33 H011        -6.3420     0.1810    -3.0380 hc         1 HJJ       0.040033
     34 H013        -5.8550     1.8020    -2.5230 hc         1 HJJ       0.040033
     35 H031        -7.3160     0.1110     0.9980 ha         1 HJJ       0.165000
     36 H042        -5.4400    -1.2790     1.3660 hc         1 HJJ       0.046700
     37 H041        -4.7990    -1.0370    -0.2420 hc         1 HJJ       0.046700
     38 H051        -4.1340     1.3150     0.4010 hc         1 HJJ       0.049200
     39 H052        -4.6720     1.0140     2.0390 hc         1 HJJ       0.049200
     40 H071        -1.9160     0.6890    -0.2350 ha         1 HJJ       0.179000
     41 H082        -0.0200    -0.0320     1.8520 h1         1 HJJ       0.040700
     42 H081        -0.4520    -1.5220     0.9890 h1         1 HJJ       0.040700
     43 H121         1.3080     2.4070    -0.2210 ha         1 HJJ       0.201000
     44 H181         5.5580    -1.2660    -0.2760 ha         1 HJJ       0.159000
     45 H253        -8.7440     0.7270    -2.1150 hc         1 HJJ       0.040033
     46 H252        -8.9260     1.1710    -0.4140 hc         1 HJJ       0.040033
     47 H251        -8.1870     2.3100    -1.5460 hc         1 HJJ       0.040033
@<TRIPOS>BOND
     1     1     4 ar  
     2     1    16 ar  
     3     1    22 1   
     4     2    17 2   
     5     2    18 1   
     6     2    26 1   
     7     3    16 ar  
     8     3    19 ar  
     9     3    24 1   
    10     4     5 1   
    11     4    20 ar  
    12     5     6 2   
    13     5    27 1   
    14     6    25 1   
    15     6    28 1   
    16     7    13 1   
    17     7    29 1   
    18     7    30 1   
    19     7    31 1   
    20     8     9 1   
    21     8    32 1   
    22     8    33 1   
    23     8    34 1   
    24     9    10 2   
    25     9    21 1   
    26    10    11 1   
    27    10    35 1   
    28    11    12 1   
    29    11    36 1   
    30    11    37 1   
    31    12    13 1   
    32    12    38 1   
    33    12    39 1   
    34    13    14 2   
    35    14    15 1   
    36    14    40 1   
    37    15    22 1   
    38    15    41 1   
    39    15    42 1   
    40    16    17 1   
    41    17    43 1   
    42    18    23 2   
    43    18    24 1   
    44    19    20 ar  
    45    19    44 1   
    46    20    25 1   
    47    21    45 1   
    48    21    46 1   
    49    21    47 1   
@<TRIPOS>SUBSTRUCTURE
     1 HJJ         1 TEMP              0 ****  ****    0 ROOT
