@<TRIPOS>MOLECULE
HJJ
   47    49     1     0     0
SMALL
bcc


@<TRIPOS>ATOM
      1 C10          1.5540    -0.4300    -0.1270 ca         1 HJJ       0.221100
      2 C13          3.1230     2.8930    -0.6310 cc         1 HJJ      -0.283200
      3 C17          3.8770     0.2390    -0.3540 ca         1 HJJ       0.200100
      4 C20          1.9860    -1.7410     0.0050 ca         1 HJJ      -0.169800
      5 C21          1.3430    -3.0140     0.1870 cc         1 HJJ      -0.163200
      6 C22          2.3380    -3.9170     0.2260 cd         1 HJJ      -0.023900
      7 C24         -2.7280    -1.5160     2.2280 c3         1 HJJ      -0.062900
      8 C01         -5.9470     1.2040    -2.2080 c3         1 HJJ      -0.057900
      9 C02         -6.7740     0.8160    -1.0180 c2         1 HJJ      -0.105400
     10 C03         -6.3300     0.0970     0.0160 c2         1 HJJ      -0.180200
     11 C04         -4.9560    -0.4600     0.2220 c3         1 HJJ      -0.033200
     12 C05         -4.1680     0.3410     1.2720 c3         1 HJJ      -0.044200
     13 C06         -2.7850    -0.2020     1.5100 c2         1 HJJ      -0.074400
     14 C07         -1.7230     0.4860     1.0790 c2         1 HJJ      -0.190200
     15 C08         -0.2910     0.1100     1.2260 c3         1 HJJ       0.184600
     16 C11          2.5100     0.5770    -0.3080 ca         1 HJJ      -0.198800
     17 C12          2.1680     1.9610    -0.4670 cd         1 HJJ      -0.004200
     18 C14          4.5230     2.5280    -0.6580 c          1 HJJ       0.749800
     19 C18          4.3380    -1.0580    -0.2280 ca         1 HJJ      -0.163000
     20 C19          3.3570    -2.0150    -0.0540 ca         1 HJJ       0.117100
     21 C25         -8.1920     1.3070    -1.0630 c3         1 HJJ      -0.057900
     22 O09          0.2380    -0.1280    -0.0960 os         1 HJJ      -0.340900
     23 O15          5.4520     3.2830    -0.7930 o          1 HJJ      -0.555500
     24 O16          4.8100     1.2070    -0.5240 os         1 HJJ      -0.341200
     25 O23          3.5640    -3.3360     0.0830 os         1 HJJ      -0.168200
     26 H131         2.8840     3.9400    -0.7510 ha         1 HJJ       0.165000
     27 H211         0.2890    -3.2200     0.2700 ha         1 HJJ       0.172000
     28 H221         2.3370    -4.9890     0.3440 h4         1 HJJ       0.193000
     29 H243        -3.2890    -2.2800     1.6860 hc         1 HJJ       0.044033
     30 H242        -1.7210    -1.8980     2.3770 hc         1 HJJ       0.044033
     31 H241        -3.1970    -1.4270     3.2120 hc         1 HJJ       0.044033
     32 H012        -4.9100     0.8810    -2.1440 hc         1 HJJ       0.040033
     33 H011        -6.3710     0.7890    -3.1250 hc         1 HJJ       0.040033
     34 H013        -5.9480     2.2900    -2.3320 hc         1 HJJ       0.040033
     35 H031        -7.0310    -0.1000     0.8250 ha         1 HJJ       0.115000
     36 H042        -5.0460    -1.5000     0.5470 hc         1 HJJ       0.046700
     37 H041        -4.3840    -0.4780    -0.7080 hc         1 HJJ       0.046700
     38 H051        -4.1080     1.3810     0.9450 hc         1 HJJ       0.049200
     39 H052        -4.7280     0.3400     2.2130 hc         1 HJJ       0.049200
     40 H071        -1.8990     1.4330     0.5760 ha         1 HJJ       0.129000
     41 H082         0.2720     0.9270     1.6900 h1         1 HJJ       0.040700
     42 H081        -0.1490    -0.7770     1.8460 h1         1 HJJ       0.040700
     43 H121         1.1260     2.2540    -0.4620 ha         1 HJJ       0.151000
     44 H181         5.3930    -1.2950    -0.2660 ha         1 HJJ       0.177000
     45 H253        -8.7070     0.9350    -1.9530 hc         1 HJJ       0.040033
     46 H252        -8.7630     0.9950    -0.1890 hc         1 HJJ       0.040033
     47 H251        -8.2280     2.3980    -1.1210 hc         1 HJJ       0.040033
@<TRIPOS>BOND
     1     1     4 ar  
     2     1    16 ar  
     3     1    22 1   
     4     2    17 2   
     5     2    18 1   
     6     2    26 1   
     7     3    16 ar  
     8     3    19 ar  
     9     3    24 1   
    10     4     5 1   
    11     4    20 ar  
    12     5     6 2   
    13     5    27 1   
    14     6    25 1   
    15     6    28 1   
    16     7    13 1   
    17     7    29 1   
    18     7    30 1   
    19     7    31 1   
    20     8     9 1   
    21     8    32 1   
    22     8    33 1   
    23     8    34 1   
    24     9    10 2   
    25     9    21 1   
    26    10    11 1   
    27    10    35 1   
    28    11    12 1   
    29    11    36 1   
    30    11    37 1   
    31    12    13 1   
    32    12    38 1   
    33    12    39 1   
    34    13    14 2   
    35    14    15 1   
    36    14    40 1   
    37    15    22 1   
    38    15    41 1   
    39    15    42 1   
    40    16    17 1   
    41    17    43 1   
    42    18    23 2   
    43    18    24 1   
    44    19    20 ar  
    45    19    44 1   
    46    20    25 1   
    47    21    45 1   
    48    21    46 1   
    49    21    47 1   
@<TRIPOS>SUBSTRUCTURE
     1 HJJ         1 TEMP              0 ****  ****    0 ROOT
