@<TRIPOS>MOLECULE
HJK
   30    32     1     0     0
SMALL
abcg2


@<TRIPOS>ATOM
      1 C4           0.4310     1.9090    -0.2040 ca         1 HJK      -0.093000
      2 C5           1.7190     2.3880    -0.4000 ca         1 HJK      -0.142000
      3 C6           2.7590     1.5170    -0.6850 ca         1 HJK      -0.062000
      4 C11         -2.3470     0.7420    -0.0220 ca         1 HJK      -0.083600
      5 C7           2.5310     0.1440    -0.7820 ca         1 HJK      -0.015300
      6 C8           3.6540    -0.7930    -1.0950 c3         1 HJK      -0.190100
      7 C9           4.5970    -1.0970     0.0980 c          1 HJK       0.724000
      8 C10          1.2420    -0.3240    -0.5760 ca         1 HJK      -0.065000
      9 C12         -3.9230     2.1610     0.0230 cc         1 HJK       0.378700
     10 C13         -3.5320     0.0140     0.1590 ca         1 HJK       0.140500
     11 N2          -1.2740    -1.3360     0.0250 nb         1 HJK      -0.267000
     12 C3           0.1790     0.5390    -0.2900 cp         1 HJK      -0.196500
     13 N3          -2.6340     2.0880    -0.1050 nd         1 HJK      -0.527100
     14 C1          -2.4690    -1.9170     0.1970 ca         1 HJK       0.395900
     15 C2          -1.1730    -0.0160    -0.0880 cp         1 HJK       0.325500
     16 O1           5.4350    -1.9970    -0.1070 o          1 HJK      -0.727000
     17 O2           4.4570    -0.4230     1.1330 o          1 HJK      -0.727000
     18 N4          -4.5200     0.9450     0.1860 na         1 HJK      -0.432300
     19 N5          -3.6470    -1.2950     0.2750 nb         1 HJK      -0.286000
     20 H1          -0.3700     2.6020     0.0080 ha         1 HJK       0.121000
     21 H2           1.9080     3.4510    -0.3310 ha         1 HJK       0.095000
     22 H3           3.7570     1.9060    -0.8470 ha         1 HJK       0.115000
     23 H4           3.2630    -1.7370    -1.4840 hc         1 HJK       0.032200
     24 H5           4.2700    -0.3740    -1.8970 hc         1 HJK       0.032200
     25 H6           1.0480    -1.3870    -0.6460 ha         1 HJK       0.125000
     26 H7          -4.5010     3.0720     0.0070 h5         1 HJK       0.054800
     27 H8          -3.3010    -3.7180     0.6220 hn         1 HJK       0.484500
     28 H9          -1.6050    -3.7300     0.4610 hn         1 HJK       0.484500
     29 H12         -5.5080     0.7740     0.2880 hn         1 HJK       0.357000
     30 N1          -2.4760    -3.2700     0.2620 nv         1 HJK      -1.052900
@<TRIPOS>BOND
     1     1     2 ar  
     2     1    12 ar  
     3     1    20 1   
     4     2     3 ar  
     5     2    21 1   
     6     3     5 ar  
     7     3    22 1   
     8     4    10 ar  
     9     4    13 1   
    10     4    15 ar  
    11     5     6 1   
    12     5     8 ar  
    13     6     7 1   
    14     6    23 1   
    15     6    24 1   
    16     7    16 1   
    17     7    17 1   
    18     8    12 ar  
    19     8    25 1   
    20     9    13 2   
    21     9    18 1   
    22     9    26 1   
    23    10    18 1   
    24    10    19 ar  
    25    11    14 ar  
    26    11    15 ar  
    27    12    15 1   
    28    14    19 ar  
    29    14    30 1   
    30    18    29 1   
    31    27    30 1   
    32    28    30 1   
@<TRIPOS>SUBSTRUCTURE
     1 HJK         1 TEMP              0 ****  ****    0 ROOT
