@<TRIPOS>MOLECULE
HJK
   30    32     1     0     0
SMALL
No Charge or Current Charge


@<TRIPOS>ATOM
      1 C4           0.4770     1.8630     0.1970 ca         1 HJK      -0.093000
      2 C5           1.7580     2.4190     0.0500 ca         1 HJK      -0.142000
      3 C6           2.8080     1.6460    -0.4680 ca         1 HJK      -0.062000
      4 C11         -2.3780     0.6480    -0.1200 ca         1 HJK      -0.083600
      5 C7           2.5840     0.3080    -0.8400 ca         1 HJK      -0.015300
      6 C8           3.7250    -0.5350    -1.4040 c3         1 HJK      -0.190100
      7 C9           4.4630    -1.2400    -0.2560 c          1 HJK       0.724000
      8 C10          1.2970    -0.2450    -0.6860 ca         1 HJK      -0.065000
      9 C12         -4.0100     2.0780    -0.3720 cc         1 HJK       0.378700
     10 C13         -3.5560    -0.0570     0.0540 ca         1 HJK       0.140500
     11 N2          -1.2010    -1.4190     0.2350 nb         1 HJK      -0.267000
     12 C3           0.2130     0.5190    -0.1720 cp         1 HJK      -0.196500
     13 N3          -2.6720     1.9950    -0.3950 nd         1 HJK      -0.527100
     14 C1          -2.4090    -1.9780     0.3830 ca         1 HJK       0.395900
     15 C2          -1.1570    -0.0900    -0.0100 cp         1 HJK       0.325500
     16 O1           4.0380    -2.3220     0.1230 o          1 HJK      -0.727000
     17 O2           5.3670    -0.6370     0.3030 o          1 HJK      -0.727000
     18 N4          -4.5640     0.8390    -0.0990 na         1 HJK      -0.432300
     19 N5          -3.6020    -1.3730     0.3090 nb         1 HJK      -0.286000
     20 H1          -0.3110     2.4810     0.6200 ha         1 HJK       0.121000
     21 H2           1.9380     3.4500     0.3430 ha         1 HJK       0.095000
     22 H3           3.7970     2.0850    -0.5760 ha         1 HJK       0.115000
     23 H4           3.2780    -1.2780    -2.0760 hc         1 HJK       0.032200
     24 H5           4.4060     0.1500    -1.9240 hc         1 HJK       0.032200
     25 H6           1.1370    -1.2800    -0.9790 ha         1 HJK       0.125000
     26 H7          -4.6080     2.9660    -0.5400 h5         1 HJK       0.054800
     27 H8          -3.2990    -3.7230     0.9640 hn         1 HJK       0.484500
     28 H9          -1.5660    -3.7660     0.9150 hn         1 HJK       0.484500
     29 H12         -5.5520     0.6410    -0.0290 hn         1 HJK       0.357000
     30 N1          -2.4300    -3.3080     0.6360 nv         1 HJK      -1.052900
@<TRIPOS>BOND
     1     1     2 ar  
     2     1    12 ar  
     3     1    20 1   
     4     2     3 ar  
     5     2    21 1   
     6     3     5 ar  
     7     3    22 1   
     8     4    10 ar  
     9     4    13 1   
    10     4    15 ar  
    11     5     6 1   
    12     5     8 ar  
    13     6     7 1   
    14     6    23 1   
    15     6    24 1   
    16     7    16 1   
    17     7    17 1   
    18     8    12 ar  
    19     8    25 1   
    20     9    13 2   
    21     9    18 1   
    22     9    26 1   
    23    10    18 1   
    24    10    19 ar  
    25    11    14 ar  
    26    11    15 ar  
    27    12    15 1   
    28    14    19 ar  
    29    14    30 1   
    30    18    29 1   
    31    27    30 1   
    32    28    30 1   
@<TRIPOS>SUBSTRUCTURE
     1 HJK         1 TEMP              0 ****  ****    0 ROOT
