@<TRIPOS>MOLECULE
HJO
   75    77     1     0     0
SMALL
abcg2


@<TRIPOS>ATOM
      1 C2         191.1190    93.9760   -14.9420 c3         1 HJO      -0.178100
      2 C1         192.5500    93.5830   -15.1950 c          1 HJO       0.619100
      3 O1         193.2520    94.1910   -15.9930 o          1 HJO      -0.616100
      4 C11        189.5430    88.7600   -10.4630 c6         1 HJO       0.407300
      5 C12        192.3440    91.6970   -13.5490 c6         1 HJO       0.093700
      6 C13        192.2840    90.0020   -16.1820 c6         1 HJO       0.353300
      7 C21        189.6390    88.3290    -8.9970 c6         1 HJO       0.128500
      8 C22        193.3570    90.8470   -12.7960 c6         1 HJO      -0.091400
      9 C23        192.2010    90.3800   -17.6690 c6         1 HJO       0.163300
     10 C31        190.0520    86.8590    -8.8890 c6         1 HJO      -0.107400
     11 C32        192.7150    90.1270   -11.6050 c6         1 HJO       0.172500
     12 C33        190.9170    89.8330   -18.3020 c6         1 HJO       0.194500
     13 C41        189.1960    85.9690    -9.7910 c6         1 HJO      -0.098400
     14 C42        191.2080    89.8480   -11.8660 c6         1 HJO       0.115300
     15 C43        190.7770    88.3020   -17.9870 c6         1 HJO       0.138000
     16 C51        189.2050    86.5400   -11.1970 c6         1 HJO       0.163300
     17 C52        190.9820    89.5270   -13.3490 c6         1 HJO       0.143300
     18 C53        191.9720    87.8260   -17.1540 c6         1 HJO       0.147600
     19 C61        188.3640    85.7890   -12.2080 c3         1 HJO       0.160800
     20 C62        191.1930    90.8270   -14.1430 c6         1 HJO       0.161300
     21 C83        189.4670    88.0460   -17.2530 c3         1 HJO      -0.128100
     22 N12        193.0310    92.5230   -14.5140 ns         1 HJO      -0.513900
     23 N21        190.4760    89.2680    -8.2720 n8         1 HJO      -0.990200
     24 N32        193.5230    88.9600   -11.3000 n8         1 HJO      -0.994200
     25 N33        190.8790    90.1290   -19.7240 n7         1 HJO      -0.862400
     26 N61        188.4430    86.4430   -13.5140 n8         1 HJO      -1.013200
     27 O11        190.8340    88.8060   -10.9960 os         1 HJO      -0.511000
     28 O23        192.2230    91.7690   -17.8500 oh         1 HJO      -0.694000
     29 O43        190.8130    87.5790   -19.2040 oh         1 HJO      -0.722000
     30 O51        188.7240    87.8780   -11.1700 os         1 HJO      -0.462000
     31 O52        189.6800    89.1080   -13.6500 oh         1 HJO      -0.740000
     32 O53        192.2130    88.6090   -16.0060 os         1 HJO      -0.486000
     33 O62        191.2280    90.6470   -15.5400 os         1 HJO      -0.445000
     34 H1         190.9600    94.9970   -15.2800 hc         1 HJO       0.063700
     35 H2         190.4580    93.3240   -15.5140 hc         1 HJO       0.063700
     36 H3         190.8270    93.9050   -13.8950 hc         1 HJO       0.063700
     37 H4         189.0650    89.7450   -10.5290 h2         1 HJO       0.085700
     38 H5         191.8730    92.3580   -12.8140 h1         1 HJO       0.055700
     39 H6         193.2480    90.3240   -15.7700 h2         1 HJO       0.043700
     40 H7         188.6230    88.4250    -8.5980 h1         1 HJO       0.072700
     41 H8         193.7980    90.1120   -13.4760 hc         1 HJO       0.061200
     42 H9         194.1790    91.4710   -12.4400 hc         1 HJO       0.061200
     43 H10        193.0570    89.9170   -18.1800 h1         1 HJO       0.051700
     44 H11        191.1060    86.7560    -9.1700 hc         1 HJO       0.044700
     45 H12        189.9760    86.5380    -7.8460 hc         1 HJO       0.044700
     46 H13        192.7650    90.7840   -10.7330 h1         1 HJO       0.066700
     47 H14        190.0780    90.3350   -17.8010 h1         1 HJO       0.065700
     48 H15        188.1680    85.9210    -9.4160 hc         1 HJO       0.050200
     49 H16        189.5830    84.9470    -9.7990 hc         1 HJO       0.050200
     50 H17        190.6330    90.7520   -11.6110 h1         1 HJO       0.047700
     51 H18        190.2370    86.5240   -11.5730 h1         1 HJO       0.055700
     52 H19        191.7180    88.7700   -13.6450 h1         1 HJO       0.053700
     53 H20        191.7840    86.8110   -16.7950 h1         1 HJO       0.051700
     54 H21        192.8610    87.7790   -17.7960 h1         1 HJO       0.051700
     55 H22        188.7670    84.7780   -12.2880 h1         1 HJO       0.037200
     56 H23        187.3330    85.6890   -11.8470 h1         1 HJO       0.037200
     57 H24        190.2720    91.4010   -13.9980 h1         1 HJO       0.083700
     58 H25        189.4450    88.5650   -16.2960 hc         1 HJO       0.051700
     59 H26        188.6200    88.3960   -17.8450 hc         1 HJO       0.051700
     60 H27        189.3300    86.9800   -17.0540 hc         1 HJO       0.051700
     61 H28        189.9560    91.3020   -21.1730 h1         1 HJO       0.029367
     62 H29        188.9860    91.1400   -19.7040 h1         1 HJO       0.029367
     63 H30        190.4120    92.1780   -19.7200 h1         1 HJO       0.029367
     64 H31        193.9830    92.2670   -14.7390 hn         1 HJO       0.308500
     65 H32        190.4310    89.0610    -7.2820 hn         1 HJO       0.399500
     66 H33        191.4440    89.1360    -8.5400 hn         1 HJO       0.399500
     67 H35        193.1460    88.4770   -10.4940 hn         1 HJO       0.403500
     68 H36        193.4870    88.2980   -12.0670 hn         1 HJO       0.403500
     69 H38        190.5840    89.3020   -20.2220 hn         1 HJO       0.433000
     70 H40        188.3980    85.7570   -14.2550 hn         1 HJO       0.405500
     71 H41        187.6390    87.0420   -13.6460 hn         1 HJO       0.405500
     72 H43        193.0930    92.1090   -17.6160 ho         1 HJO       0.513000
     73 H44        190.4010    86.7200   -19.0670 ho         1 HJO       0.508000
     74 H45        189.5540    88.1530   -13.5040 ho         1 HJO       0.550000
     75 C93        190.0130    91.2330   -20.0860 c3         1 HJO       0.155100
@<TRIPOS>BOND
     1     1     2 1   
     2     1    34 1   
     3     1    35 1   
     4     1    36 1   
     5     2     3 2   
     6     2    22 1   
     7     4     7 1   
     8     4    27 1   
     9     4    30 1   
    10     4    37 1   
    11     5     8 1   
    12     5    20 1   
    13     5    22 1   
    14     5    38 1   
    15     6     9 1   
    16     6    32 1   
    17     6    33 1   
    18     6    39 1   
    19     7    10 1   
    20     7    23 1   
    21     7    40 1   
    22     8    11 1   
    23     8    41 1   
    24     8    42 1   
    25     9    12 1   
    26     9    28 1   
    27     9    43 1   
    28    10    13 1   
    29    10    44 1   
    30    10    45 1   
    31    11    14 1   
    32    11    24 1   
    33    11    46 1   
    34    12    15 1   
    35    12    25 1   
    36    12    47 1   
    37    13    16 1   
    38    13    48 1   
    39    13    49 1   
    40    14    17 1   
    41    14    27 1   
    42    14    50 1   
    43    15    18 1   
    44    15    21 1   
    45    15    29 1   
    46    16    19 1   
    47    16    30 1   
    48    16    51 1   
    49    17    20 1   
    50    17    31 1   
    51    17    52 1   
    52    18    32 1   
    53    18    53 1   
    54    18    54 1   
    55    19    26 1   
    56    19    55 1   
    57    19    56 1   
    58    20    33 1   
    59    20    57 1   
    60    21    58 1   
    61    21    59 1   
    62    21    60 1   
    63    22    64 1   
    64    23    65 1   
    65    23    66 1   
    66    24    67 1   
    67    24    68 1   
    68    25    69 1   
    69    25    75 1   
    70    26    70 1   
    71    26    71 1   
    72    28    72 1   
    73    29    73 1   
    74    31    74 1   
    75    61    75 1   
    76    62    75 1   
    77    63    75 1   
@<TRIPOS>SUBSTRUCTURE
     1 HJO         1 TEMP              0 ****  ****    0 ROOT
