@<TRIPOS>MOLECULE
HJO
   75    77     1     0     0
SMALL
No Charge or Current Charge


@<TRIPOS>ATOM
      1 C2         191.2250    94.3010   -14.8860 c3         1 HJO      -0.178100
      2 C1         192.6400    93.8110   -15.1930 c          1 HJO       0.619100
      3 O1         193.3800    94.4180   -15.9490 o          1 HJO      -0.616100
      4 C11        189.5770    88.6540   -10.4600 c6         1 HJO       0.407300
      5 C12        192.4020    91.8380   -13.5710 c6         1 HJO       0.093700
      6 C13        192.1810    90.0740   -16.1910 c6         1 HJO       0.353300
      7 C21        189.4600    88.1970    -8.9540 c6         1 HJO       0.128500
      8 C22        193.4300    90.9130   -12.8770 c6         1 HJO      -0.091400
      9 C23        192.1960    90.4240   -17.7290 c6         1 HJO       0.163300
     10 C31        189.9460    86.7360    -8.7840 c6         1 HJO      -0.107400
     11 C32        192.8240    90.2450   -11.6100 c6         1 HJO       0.172500
     12 C33        190.9040    89.8560   -18.4310 c6         1 HJO       0.194500
     13 C41        189.2320    85.8120    -9.7990 c6         1 HJO      -0.098400
     14 C42        191.2910    89.9060   -11.7480 c6         1 HJO       0.115300
     15 C43        190.5080    88.3980   -17.9320 c6         1 HJO       0.138000
     16 C51        189.4110    86.3430   -11.2450 c6         1 HJO       0.163300
     17 C52        190.9220    89.6680   -13.2520 c6         1 HJO       0.143300
     18 C53        191.6790    87.8140   -17.0830 c6         1 HJO       0.147600
     19 C61        188.6240    85.4690   -12.2780 c3         1 HJO       0.160800
     20 C62        191.1730    90.9860   -14.0830 c6         1 HJO       0.161300
     21 C83        189.1880    88.4300   -17.1070 c3         1 HJO      -0.128100
     22 N12        193.0780    92.6430   -14.6100 ns         1 HJO      -0.513900
     23 N21        190.1910    89.0770    -7.9950 n8         1 HJO      -0.990200
     24 N32        193.6170    89.0480   -11.2470 n8         1 HJO      -0.994200
     25 N33        191.0250    89.8810   -19.9220 n7         1 HJO      -0.862400
     26 N61        188.7780    85.8700   -13.6990 n8         1 HJO      -1.013200
     27 O11        190.9580    88.7830   -10.8750 os         1 HJO      -0.511000
     28 O23        192.3260    91.8540   -17.9710 oh         1 HJO      -0.694000
     29 O43        190.2480    87.5170   -19.0540 oh         1 HJO      -0.722000
     30 O51        188.9210    87.7080   -11.3380 os         1 HJO      -0.462000
     31 O52        189.5650    89.2120   -13.4120 oh         1 HJO      -0.740000
     32 O53        192.0170    88.6520   -15.9500 os         1 HJO      -0.486000
     33 O62        191.1140    90.8030   -15.5340 os         1 HJO      -0.445000
     34 H1         191.0100    95.2670   -15.3550 hc         1 HJO       0.063700
     35 H2         190.5080    93.5430   -15.2160 hc         1 HJO       0.063700
     36 H3         191.0670    94.3350   -13.8030 hc         1 HJO       0.063700
     37 H4         189.0760    89.6310   -10.5450 h2         1 HJO       0.085700
     38 H5         192.0360    92.5370   -12.8050 h1         1 HJO       0.055700
     39 H6         193.1470    90.3850   -15.7720 h2         1 HJO       0.043700
     40 H7         188.3950    88.2290    -8.6780 h1         1 HJO       0.072700
     41 H8         193.7800    90.1510   -13.5880 hc         1 HJO       0.061200
     42 H9         194.3180    91.4900   -12.5850 hc         1 HJO       0.061200
     43 H10        193.0660    89.9110   -18.1660 h1         1 HJO       0.051700
     44 H11        191.0330    86.6770    -8.9390 hc         1 HJO       0.044700
     45 H12        189.7520    86.3840    -7.7620 hc         1 HJO       0.044700
     46 H13        192.9100    90.9510   -10.7680 h1         1 HJO       0.066700
     47 H14        190.0750    90.5210   -18.1440 h1         1 HJO       0.065700
     48 H15        188.1620    85.7470    -9.5550 hc         1 HJO       0.050200
     49 H16        189.6350    84.7930    -9.7210 hc         1 HJO       0.050200
     50 H17        190.7340    90.7890   -11.3990 h1         1 HJO       0.047700
     51 H18        190.4770    86.3220   -11.5140 h1         1 HJO       0.055700
     52 H19        191.6060    88.8850   -13.6060 h1         1 HJO       0.053700
     53 H20        191.4100    86.8170   -16.7070 h1         1 HJO       0.051700
     54 H21        192.5710    87.6940   -17.7140 h1         1 HJO       0.051700
     55 H22        188.9600    84.4270   -12.1790 h1         1 HJO       0.037200
     56 H23        187.5550    85.5020   -12.0210 h1         1 HJO       0.037200
     57 H24        190.3030    91.6180   -13.8550 h1         1 HJO       0.083700
     58 H25        189.2660    89.0950   -16.2410 hc         1 HJO       0.051700
     59 H26        188.3480    88.7880   -17.7150 hc         1 HJO       0.051700
     60 H27        188.9240    87.4350   -16.7280 hc         1 HJO       0.051700
     61 H28        190.4380    90.8480   -21.7210 h1         1 HJO       0.029367
     62 H29        189.2250    90.9010   -20.4220 h1         1 HJO       0.029367
     63 H30        190.6690    91.9390   -20.3370 h1         1 HJO       0.029367
     64 H31        194.0300    92.3920   -14.8480 hn         1 HJO       0.308500
     65 H32        190.3240    88.5680    -7.1140 hn         1 HJO       0.399500
     66 H33        191.1470    89.1980    -8.3500 hn         1 HJO       0.399500
     67 H35        192.9780    88.4630   -10.6910 hn         1 HJO       0.403500
     68 H36        193.7540    88.4800   -12.0890 hn         1 HJO       0.403500
     69 H38        190.6300    88.9720   -20.2140 hn         1 HJO       0.433000
     70 H40        188.1540    85.2960   -14.2780 hn         1 HJO       0.405500
     71 H41        188.4070    86.8200   -13.8160 hn         1 HJO       0.405500
     72 H43        193.2110    92.1300   -17.6450 ho         1 HJO       0.513000
     73 H44        189.8490    86.6930   -18.6910 ho         1 HJO       0.508000
     74 H45        189.4220    88.5440   -12.6860 ho         1 HJO       0.550000
     75 C93        190.3020    90.9480   -20.6360 c3         1 HJO       0.155100
@<TRIPOS>BOND
     1     1     2 1   
     2     1    34 1   
     3     1    35 1   
     4     1    36 1   
     5     2     3 2   
     6     2    22 1   
     7     4     7 1   
     8     4    27 1   
     9     4    30 1   
    10     4    37 1   
    11     5     8 1   
    12     5    20 1   
    13     5    22 1   
    14     5    38 1   
    15     6     9 1   
    16     6    32 1   
    17     6    33 1   
    18     6    39 1   
    19     7    10 1   
    20     7    23 1   
    21     7    40 1   
    22     8    11 1   
    23     8    41 1   
    24     8    42 1   
    25     9    12 1   
    26     9    28 1   
    27     9    43 1   
    28    10    13 1   
    29    10    44 1   
    30    10    45 1   
    31    11    14 1   
    32    11    24 1   
    33    11    46 1   
    34    12    15 1   
    35    12    25 1   
    36    12    47 1   
    37    13    16 1   
    38    13    48 1   
    39    13    49 1   
    40    14    17 1   
    41    14    27 1   
    42    14    50 1   
    43    15    18 1   
    44    15    21 1   
    45    15    29 1   
    46    16    19 1   
    47    16    30 1   
    48    16    51 1   
    49    17    20 1   
    50    17    31 1   
    51    17    52 1   
    52    18    32 1   
    53    18    53 1   
    54    18    54 1   
    55    19    26 1   
    56    19    55 1   
    57    19    56 1   
    58    20    33 1   
    59    20    57 1   
    60    21    58 1   
    61    21    59 1   
    62    21    60 1   
    63    22    64 1   
    64    23    65 1   
    65    23    66 1   
    66    24    67 1   
    67    24    68 1   
    68    25    69 1   
    69    25    75 1   
    70    26    70 1   
    71    26    71 1   
    72    28    72 1   
    73    29    73 1   
    74    31    74 1   
    75    61    75 1   
    76    62    75 1   
    77    63    75 1   
@<TRIPOS>SUBSTRUCTURE
     1 HJO         1 TEMP              0 ****  ****    0 ROOT
