@<TRIPOS>MOLECULE
HJQ
   50    52     1     0     0
SMALL
abcg2


@<TRIPOS>ATOM
      1 C01         -0.4670    -1.6450    -0.7910 c5         1 HJQ       0.161800
      2 C03         -1.9720    -1.9060    -0.6110 c5         1 HJQ      -0.078400
      3 C05         -2.4220    -0.8980     0.4640 c5         1 HJQ      -0.024400
      4 C07         -1.3270     0.1630     0.3840 c5         1 HJQ       0.172800
      5 C09          2.3160    -0.7130    -0.0640 c3         1 HJQ      -0.072400
      6 C10          3.5850     0.0810    -0.3400 c6         1 HJQ       0.176500
      7 C11          4.8080    -0.8370    -0.3810 c6         1 HJQ       0.132800
      8 C13          6.2230     1.0170     0.1770 c6         1 HJQ       0.128800
      9 C14          4.9910     1.9120     0.2190 c6         1 HJQ       0.163800
     10 C16         -3.8220    -0.3730     0.3150 ca         1 HJQ      -0.085300
     11 C17         -4.7360    -0.4940     1.3580 ca         1 HJQ      -0.080500
     12 C18         -6.0350    -0.0130     1.2490 ca         1 HJQ      -0.151000
     13 C19         -6.4120     0.5990     0.0710 ca         1 HJQ       0.168000
     14 C20         -5.5390     0.7410    -0.9910 ca         1 HJQ      -0.151000
     15 C21         -4.2480     0.2500    -0.8590 ca         1 HJQ      -0.080500
     16 F22         -7.6660     1.0690    -0.0480 f          1 HJQ      -0.181000
     17 N02         -0.1320    -0.6320     0.2030 n3         1 HJQ      -0.735600
     18 N04          6.0030    -0.0920    -0.7330 n3         1 HJQ      -0.715600
     19 N06          3.7730     1.2040     0.5760 n3         1 HJQ      -0.717600
     20 H1           0.1340    -2.5450    -0.6490 h1         1 HJQ       0.035700
     21 H2          -0.2670    -1.2860    -1.8130 h1         1 HJQ       0.035700
     22 H3          -2.4980    -1.7310    -1.5500 hc         1 HJQ       0.048200
     23 H4          -2.1900    -2.9310    -0.3110 hc         1 HJQ       0.048200
     24 H5          -2.3440    -1.3740     1.4450 hc         1 HJQ       0.065700
     25 H6          -1.5120     0.8490    -0.4620 h1         1 HJQ       0.039200
     26 H7          -1.2620     0.7730     1.2880 h1         1 HJQ       0.039200
     27 H10          2.3820    -1.2420     0.8920 hc         1 HJQ       0.045700
     28 H11          2.2470    -1.4880    -0.8330 hc         1 HJQ       0.045700
     29 H12          3.4890     0.5210    -1.3420 h1         1 HJQ       0.069700
     30 H13          4.9160    -1.3610     0.5870 h1         1 HJQ       0.035200
     31 H14          4.6480    -1.6120    -1.1370 h1         1 HJQ       0.035200
     32 H15          6.9800    -1.7480    -1.5430 h1         1 HJQ       0.030367
     33 H16          8.0250    -0.3810    -1.1620 h1         1 HJQ       0.030367
     34 H17          7.4270    -1.4220     0.1390 h1         1 HJQ       0.030367
     35 H18          7.0800     1.5980    -0.1740 h1         1 HJQ       0.034200
     36 H19          6.4730     0.6690     1.1950 h1         1 HJQ       0.034200
     37 H20          5.1520     2.7300     0.9250 h1         1 HJQ       0.057700
     38 H21          4.8510     2.3610    -0.7700 h1         1 HJQ       0.057700
     39 H22          3.9380     1.7470     2.5750 h1         1 HJQ       0.031033
     40 H23          2.7060     0.5400     2.2580 h1         1 HJQ       0.031033
     41 H24          4.4040     0.0690     2.3040 h1         1 HJQ       0.031033
     42 H25         -4.4330    -0.9750     2.2800 ha         1 HJQ       0.116000
     43 H26         -6.7370    -0.1140     2.0660 ha         1 HJQ       0.131500
     44 H27         -5.8590     1.2230    -1.9050 ha         1 HJQ       0.131500
     45 H28         -3.5670     0.3600    -1.6940 ha         1 HJQ       0.116000
     46 C08          1.0550     0.1400    -0.0860 c3         1 HJQ       0.180800
     47 C12          7.1590    -0.9510    -0.8200 c3         1 HJQ       0.154100
     48 C15          3.7130     0.8590     1.9840 c3         1 HJQ       0.149100
     49 H8           1.1340     0.9300     0.6640 h1         1 HJQ       0.039200
     50 H9           0.9820     0.6470    -1.0650 h1         1 HJQ       0.039200
@<TRIPOS>BOND
     1     1     2 1   
     2     1    17 1   
     3     1    20 1   
     4     1    21 1   
     5     2     3 1   
     6     2    22 1   
     7     2    23 1   
     8     3     4 1   
     9     3    10 1   
    10     3    24 1   
    11     4    17 1   
    12     4    25 1   
    13     4    26 1   
    14     5     6 1   
    15     5    27 1   
    16     5    28 1   
    17     5    46 1   
    18     6     7 1   
    19     6    19 1   
    20     6    29 1   
    21     7    18 1   
    22     7    30 1   
    23     7    31 1   
    24     8     9 1   
    25     8    18 1   
    26     8    35 1   
    27     8    36 1   
    28     9    19 1   
    29     9    37 1   
    30     9    38 1   
    31    10    11 ar  
    32    10    15 ar  
    33    11    12 ar  
    34    11    42 1   
    35    12    13 ar  
    36    12    43 1   
    37    13    14 ar  
    38    13    16 1   
    39    14    15 ar  
    40    14    44 1   
    41    15    45 1   
    42    17    46 1   
    43    18    47 1   
    44    19    48 1   
    45    32    47 1   
    46    33    47 1   
    47    34    47 1   
    48    39    48 1   
    49    40    48 1   
    50    41    48 1   
    51    46    49 1   
    52    46    50 1   
@<TRIPOS>SUBSTRUCTURE
     1 HJQ         1 TEMP              0 ****  ****    0 ROOT
