@<TRIPOS>MOLECULE
HJQ
   50    52     1     0     0
SMALL
No Charge or Current Charge


@<TRIPOS>ATOM
      1 C01         -0.7080    -1.5180    -0.6320 c5         1 HJQ       0.161800
      2 C03         -2.0140    -2.1050    -0.0330 c5         1 HJQ      -0.078400
      3 C05         -2.5340    -0.9650     0.9080 c5         1 HJQ      -0.024400
      4 C07         -1.4410     0.1420     0.8020 c5         1 HJQ       0.172800
      5 C09          2.2590    -0.6860    -0.0190 c3         1 HJQ      -0.072400
      6 C10          3.5390     0.1610    -0.2860 c6         1 HJQ       0.176500
      7 C11          4.7740    -0.7580    -0.5970 c6         1 HJQ       0.132800
      8 C13          6.2890     1.0670     0.0600 c6         1 HJQ       0.128800
      9 C14          5.0470     1.9660     0.3760 c6         1 HJQ       0.163800
     10 C16         -3.8530    -0.4000     0.3580 ca         1 HJQ      -0.085300
     11 C17         -4.9740    -0.3130     1.2110 ca         1 HJQ      -0.080500
     12 C18         -6.1960     0.2010     0.7410 ca         1 HJQ      -0.151000
     13 C19         -6.3080     0.6340    -0.5870 ca         1 HJQ       0.168000
     14 C20         -5.2050     0.5560    -1.4490 ca         1 HJQ      -0.151000
     15 C21         -3.9830     0.0430    -0.9800 ca         1 HJQ      -0.080500
     16 F22         -7.4820     1.1270    -1.0380 f          1 HJQ      -0.181000
     17 N02         -0.2360    -0.6520     0.4730 n3         1 HJQ      -0.735600
     18 N04          5.9880     0.0300    -0.9740 n3         1 HJQ      -0.715600
     19 N06          3.8500     1.1680     0.7900 n3         1 HJQ      -0.717600
     20 H1           0.0080    -2.3100    -0.8900 h1         1 HJQ       0.035700
     21 H2          -0.9120    -0.9320    -1.5400 h1         1 HJQ       0.035700
     22 H3          -2.7270    -2.4050    -0.8100 hc         1 HJQ       0.048200
     23 H4          -1.7930    -3.0060     0.5510 hc         1 HJQ       0.048200
     24 H5          -2.6240    -1.3270     1.9390 hc         1 HJQ       0.065700
     25 H6          -1.6580     0.8700     0.0080 h1         1 HJQ       0.039200
     26 H7          -1.3310     0.6980     1.7430 h1         1 HJQ       0.039200
     27 H10          2.4080    -1.3450     0.8440 hc         1 HJQ       0.045700
     28 H11          2.0970    -1.3470    -0.8780 hc         1 HJQ       0.045700
     29 H12          3.3320     0.7140    -1.2150 h1         1 HJQ       0.069700
     30 H13          4.9850    -1.3880     0.2790 h1         1 HJQ       0.035200
     31 H14          4.5060    -1.4390    -1.4190 h1         1 HJQ       0.035200
     32 H15          6.9110    -1.5300    -2.0920 h1         1 HJQ       0.030367
     33 H16          8.0050    -0.2130    -1.6160 h1         1 HJQ       0.030367
     34 H17          7.4640    -1.4010    -0.4050 h1         1 HJQ       0.030367
     35 H18          7.1110     1.7140    -0.2810 h1         1 HJQ       0.034200
     36 H19          6.6280     0.5880     0.9900 h1         1 HJQ       0.034200
     37 H20          5.3180     2.6930     1.1570 h1         1 HJQ       0.057700
     38 H21          4.8100     2.5510    -0.5250 h1         1 HJQ       0.057700
     39 H22          4.2410     1.3880     2.8760 h1         1 HJQ       0.031033
     40 H23          3.0560     0.1340     2.4900 h1         1 HJQ       0.031033
     41 H24          4.7850    -0.1610     2.1970 h1         1 HJQ       0.031033
     42 H25         -4.8990    -0.6450     2.2440 ha         1 HJQ       0.116000
     43 H26         -7.0540     0.2640     1.4050 ha         1 HJQ       0.131500
     44 H27         -5.2980     0.8940    -2.4780 ha         1 HJQ       0.131500
     45 H28         -3.1380    -0.0090    -1.6620 ha         1 HJQ       0.116000
     46 C08          0.9800     0.1520     0.2040 c3         1 HJQ       0.180800
     47 C12          7.1540    -0.8240    -1.2860 c3         1 HJQ       0.154100
     48 C15          3.9930     0.5980     2.1550 c3         1 HJQ       0.149100
     49 H8           1.1560     0.8250     1.0540 h1         1 HJQ       0.039200
     50 H9           0.8200     0.7870    -0.6780 h1         1 HJQ       0.039200
@<TRIPOS>BOND
     1     1     2 1   
     2     1    17 1   
     3     1    20 1   
     4     1    21 1   
     5     2     3 1   
     6     2    22 1   
     7     2    23 1   
     8     3     4 1   
     9     3    10 1   
    10     3    24 1   
    11     4    17 1   
    12     4    25 1   
    13     4    26 1   
    14     5     6 1   
    15     5    27 1   
    16     5    28 1   
    17     5    46 1   
    18     6     7 1   
    19     6    19 1   
    20     6    29 1   
    21     7    18 1   
    22     7    30 1   
    23     7    31 1   
    24     8     9 1   
    25     8    18 1   
    26     8    35 1   
    27     8    36 1   
    28     9    19 1   
    29     9    37 1   
    30     9    38 1   
    31    10    11 ar  
    32    10    15 ar  
    33    11    12 ar  
    34    11    42 1   
    35    12    13 ar  
    36    12    43 1   
    37    13    14 ar  
    38    13    16 1   
    39    14    15 ar  
    40    14    44 1   
    41    15    45 1   
    42    17    46 1   
    43    18    47 1   
    44    19    48 1   
    45    32    47 1   
    46    33    47 1   
    47    34    47 1   
    48    39    48 1   
    49    40    48 1   
    50    41    48 1   
    51    46    49 1   
    52    46    50 1   
@<TRIPOS>SUBSTRUCTURE
     1 HJQ         1 TEMP              0 ****  ****    0 ROOT
