@<TRIPOS>MOLECULE
HJR
   73    75     1     0     0
SMALL
No Charge or Current Charge


@<TRIPOS>ATOM
      1 F2         193.1560    93.7950   -13.2190 f          1 HJR      -0.105000
      2 F1         194.7660    94.7920   -14.3060 f          1 HJR      -0.105000
      3 C6         193.8430    93.8030   -14.3870 c3         1 HJR       0.098000
      4 O1         195.3220    92.2010   -16.0330 o          1 HJR      -0.484500
      5 C11        189.7420    87.1620   -11.3770 c6         1 HJR       0.382300
      6 C12        192.5580    90.6610   -13.7730 c6         1 HJR       0.216500
      7 C13        191.0090    89.6080   -16.3470 c6         1 HJR       0.394300
      8 C21        188.2980    86.7100   -11.0380 c6         1 HJR      -0.099400
      9 C22        193.0350    89.2720   -13.2750 c6         1 HJR      -0.085400
     10 C23        191.2880    90.0320   -17.8160 c6         1 HJR      -0.090400
     11 C31        188.0370    86.7140    -9.5100 c6         1 HJR      -0.069400
     12 C32        192.2910    88.8120   -11.9820 c6         1 HJR       0.143500
     13 C33        190.0060    90.4570   -18.6030 c6         1 HJR       0.192500
     14 C41        189.1420    85.9190    -8.7750 c6         1 HJR      -0.105400
     15 C42        190.8080    89.3430   -11.9120 c6         1 HJR       0.135300
     16 C43        188.8670    89.3830   -18.3990 c6         1 HJR       0.148000
     17 C51        190.5420    86.4400    -9.1870 c6         1 HJR       0.168300
     18 C52        190.2070    89.5430   -13.3300 c6         1 HJR       0.128300
     19 C53        188.6820    89.1630   -16.8690 c6         1 HJR       0.142600
     20 C61        191.6960    85.6080    -8.5370 c3         1 HJR       0.155800
     21 C62        191.0100    90.6630   -14.0890 c6         1 HJR       0.170300
     22 C83        187.5280    89.7940   -19.0760 c3         1 HJR      -0.123100
     23 F3         192.9700    94.1420   -15.3680 f          1 HJR      -0.105000
     24 N12        193.3580    91.1020   -14.9450 n7         1 HJR      -0.924300
     25 N32        193.0470    89.2060   -10.7730 n8         1 HJR      -0.995200
     26 N33        189.5630    91.8440   -18.2770 n7         1 HJR      -0.851400
     27 N61        193.0640    86.0490    -8.9090 n8         1 HJR      -1.003200
     28 O11        189.9270    88.5600   -11.0520 os         1 HJR      -0.482000
     29 O2         195.3660    91.7040   -13.5500 o          1 HJR      -0.484500
     30 O43        189.2670    88.1340   -18.9940 oh         1 HJR      -0.720000
     31 O51        190.6890    86.3690   -10.6300 os         1 HJR      -0.488000
     32 O52        188.8030    89.8590   -13.2350 oh         1 HJR      -0.699000
     33 O53        189.9170    88.6640   -16.3030 os         1 HJR      -0.466000
     34 O62        190.7040    90.7530   -15.5160 os         1 HJR      -0.470000
     35 S          194.6400    92.1700   -14.7360 s6         1 HJR       1.201100
     36 H1         189.9050    87.0020   -12.4530 h2         1 HJR       0.062700
     37 H2         192.7040    91.3620   -12.9350 h1         1 HJR       0.092700
     38 H3         191.9180    89.1180   -15.9700 h2         1 HJR       0.055700
     39 H4         187.5730    87.3590   -11.5470 hc         1 HJR       0.052700
     40 H5         188.1390    85.7000   -11.4370 hc         1 HJR       0.052700
     41 H6         192.8700    88.5280   -14.0650 hc         1 HJR       0.056200
     42 H7         194.1200    89.2790   -13.1070 hc         1 HJR       0.056200
     43 H8         191.7510    89.1800   -18.3300 hc         1 HJR       0.061700
     44 H9         192.0490    90.8200   -17.8380 hc         1 HJR       0.061700
     45 H10        188.0160    87.7480    -9.1400 hc         1 HJR       0.051200
     46 H11        187.0500    86.2830    -9.2930 hc         1 HJR       0.051200
     47 H12        192.2930    87.7140   -12.0010 h1         1 HJR       0.032700
     48 H13        190.2620    90.4550   -19.6740 h1         1 HJR       0.036700
     49 H14        189.0090    86.0120    -7.6880 hc         1 HJR       0.049200
     50 H15        189.0550    84.8510    -9.0140 hc         1 HJR       0.049200
     51 H16        190.8570    90.3450   -11.4600 h1         1 HJR       0.102700
     52 H17        190.6530    87.4850    -8.8630 h1         1 HJR       0.065700
     53 H18        190.3330    88.5930   -13.8670 h1         1 HJR       0.044700
     54 H19        188.3900    90.0990   -16.3710 h1         1 HJR       0.062700
     55 H20        187.8860    88.4270   -16.6890 h1         1 HJR       0.062700
     56 H21        191.5990    85.6580    -7.4430 h1         1 HJR       0.036200
     57 H22        191.5780    84.5580    -8.8390 h1         1 HJR       0.036200
     58 H23        190.6480    91.6110   -13.6650 h1         1 HJR       0.100700
     59 H24        187.0890    90.6820   -18.6070 hc         1 HJR       0.045367
     60 H25        187.6720    90.0130   -20.1420 hc         1 HJR       0.045367
     61 H26        186.7840    88.9910   -19.0020 hc         1 HJR       0.045367
     62 H27        189.9680    93.9230   -18.4370 h1         1 HJR       0.030367
     63 H28        191.4080    92.9220   -18.1860 h1         1 HJR       0.030367
     64 H29        190.6060    92.9440   -19.7760 h1         1 HJR       0.030367
     65 H30        192.7480    91.6690   -15.5370 hn         1 HJR       0.529000
     66 H31        192.6440    88.6980    -9.9750 hn         1 HJR       0.411500
     67 H32        193.9950    88.8160   -10.8310 hn         1 HJR       0.411500
     68 H34        188.6520    91.9920   -18.7250 hn         1 HJR       0.407000
     69 H36        193.7420    85.3490    -8.5840 hn         1 HJR       0.398000
     70 H37        193.1340    86.0000    -9.9330 hn         1 HJR       0.398000
     71 H39        189.7370    87.6470   -18.2770 ho         1 HJR       0.506000
     72 H40        188.5160    89.5110   -12.3580 ho         1 HJR       0.512000
     73 C93        190.4350    92.9620   -18.6910 c3         1 HJR       0.150100
@<TRIPOS>BOND
     1     1     3 1   
     2     2     3 1   
     3     3    23 1   
     4     3    35 1   
     5     4    35 2   
     6     5     8 1   
     7     5    28 1   
     8     5    31 1   
     9     5    36 1   
    10     6     9 1   
    11     6    21 1   
    12     6    24 1   
    13     6    37 1   
    14     7    10 1   
    15     7    33 1   
    16     7    34 1   
    17     7    38 1   
    18     8    11 1   
    19     8    39 1   
    20     8    40 1   
    21     9    12 1   
    22     9    41 1   
    23     9    42 1   
    24    10    13 1   
    25    10    43 1   
    26    10    44 1   
    27    11    14 1   
    28    11    45 1   
    29    11    46 1   
    30    12    15 1   
    31    12    25 1   
    32    12    47 1   
    33    13    16 1   
    34    13    26 1   
    35    13    48 1   
    36    14    17 1   
    37    14    49 1   
    38    14    50 1   
    39    15    18 1   
    40    15    28 1   
    41    15    51 1   
    42    16    19 1   
    43    16    22 1   
    44    16    30 1   
    45    17    20 1   
    46    17    31 1   
    47    17    52 1   
    48    18    21 1   
    49    18    32 1   
    50    18    53 1   
    51    19    33 1   
    52    19    54 1   
    53    19    55 1   
    54    20    27 1   
    55    20    56 1   
    56    20    57 1   
    57    21    34 1   
    58    21    58 1   
    59    22    59 1   
    60    22    60 1   
    61    22    61 1   
    62    24    35 1   
    63    24    65 1   
    64    25    66 1   
    65    25    67 1   
    66    26    68 1   
    67    26    73 1   
    68    27    69 1   
    69    27    70 1   
    70    29    35 2   
    71    30    71 1   
    72    32    72 1   
    73    62    73 1   
    74    63    73 1   
    75    64    73 1   
@<TRIPOS>SUBSTRUCTURE
     1 HJR         1 TEMP              0 ****  ****    0 ROOT
