@<TRIPOS>MOLECULE
HJR
   73    75     1     0     0
SMALL
bcc


@<TRIPOS>ATOM
      1 F2         192.5030    93.7690   -13.1280 f          1 HJR      -0.226300
      2 F1         194.0830    94.9760   -13.9630 f          1 HJR      -0.226300
      3 C6         193.2860    93.9430   -14.1840 c3         1 HJR       0.572700
      4 O1         195.0480    92.7080   -15.6770 o          1 HJR      -0.555300
      5 C11        189.9490    87.0400   -11.3330 c6         1 HJR       0.335900
      6 C12        192.4590    90.5510   -13.7830 c6         1 HJR       0.216500
      7 C13        190.7470    89.3610   -16.3510 c6         1 HJR       0.347900
      8 C21        188.5260    86.6210   -10.9830 c6         1 HJR      -0.099400
      9 C22        193.0000    89.1620   -13.4900 c6         1 HJR      -0.085400
     10 C23        191.1550    89.6830   -17.7840 c6         1 HJR      -0.090400
     11 C31        188.2360    86.7960    -9.4970 c6         1 HJR      -0.069400
     12 C32        192.3220    88.5910   -12.2310 c6         1 HJR       0.143500
     13 C33        190.0710    90.3790   -18.6120 c6         1 HJR       0.192500
     14 C41        189.3200    86.1070    -8.6760 c6         1 HJR      -0.105400
     15 C42        190.9010    89.1660   -12.0740 c6         1 HJR       0.112100
     16 C43        188.7520    89.5940   -18.4620 c6         1 HJR       0.124800
     17 C51        190.6950    86.5900    -9.1080 c6         1 HJR       0.145100
     18 C52        190.2410    89.3830   -13.4430 c6         1 HJR       0.105100
     19 C53        188.4560    89.4060   -16.9760 c6         1 HJR       0.119400
     20 C61        191.8240    85.8610    -8.4080 c3         1 HJR       0.155800
     21 C62        190.9640    90.5150   -14.1840 c6         1 HJR       0.147100
     22 C83        187.5690    90.2830   -19.1330 c3         1 HJR      -0.123100
     23 F3         192.5360    94.1920   -15.2460 f          1 HJR      -0.226300
     24 N12        193.2220    91.2690   -14.7970 n7         1 HJR      -0.869100
     25 N32        193.1080    88.9500   -11.0590 n8         1 HJR      -0.884800
     26 N33        189.8730    91.7640   -18.2250 n7         1 HJR      -0.796200
     27 N61        193.1180    86.4180    -8.7690 n8         1 HJR      -0.892800
     28 O11        190.0450    88.4350   -11.2120 os         1 HJR      -0.435600
     29 O2         194.9390    92.1500   -13.2120 o          1 HJR      -0.555300
     30 O43        188.9990    88.3460   -19.0860 oh         1 HJR      -0.597800
     31 O51        190.8810    86.3990   -10.5090 os         1 HJR      -0.441600
     32 O52        188.8980    89.7790   -13.3320 oh         1 HJR      -0.576800
     33 O53        189.5000    88.7370   -16.3010 os         1 HJR      -0.419600
     34 O62        190.7750    90.5440   -15.5870 os         1 HJR      -0.423600
     35 S          194.2940    92.4200   -14.4780 s6         1 HJR       1.231900
     36 H1         190.1890    86.7120   -12.3510 h2         1 HJR       0.062700
     37 H2         192.5180    91.1180   -12.8520 h1         1 HJR       0.092700
     38 H3         191.4450    88.6220   -15.9440 h2         1 HJR       0.055700
     39 H4         187.8150    87.1750   -11.5980 hc         1 HJR       0.052700
     40 H5         188.4170    85.5670   -11.2530 hc         1 HJR       0.052700
     41 H6         192.8440    88.4990   -14.3420 hc         1 HJR       0.056200
     42 H7         194.0790    89.2090   -13.3300 hc         1 HJR       0.056200
     43 H8         191.3890    88.7350   -18.2690 hc         1 HJR       0.061700
     44 H9         192.0870    90.2500   -17.7890 hc         1 HJR       0.061700
     45 H10        188.1960    87.8580    -9.2420 hc         1 HJR       0.051200
     46 H11        187.2540    86.3820    -9.2600 hc         1 HJR       0.051200
     47 H12        192.2530    87.5070   -12.3780 h1         1 HJR       0.032700
     48 H13        190.3790    90.3060   -19.6700 h1         1 HJR       0.036700
     49 H14        189.1860    86.3110    -7.6110 hc         1 HJR       0.049200
     50 H15        189.2530    85.0220    -8.8060 hc         1 HJR       0.049200
     51 H16        190.9900    90.1380   -11.5750 h1         1 HJR       0.102700
     52 H17        190.7870    87.6570    -8.8640 h1         1 HJR       0.065700
     53 H18        190.3250    88.4440   -14.0070 h1         1 HJR       0.044700
     54 H19        188.2420    90.3780   -16.5200 h1         1 HJR       0.062700
     55 H20        187.5660    88.7840   -16.8480 h1         1 HJR       0.062700
     56 H21        191.6800    85.9950    -7.3340 h1         1 HJR       0.036200
     57 H22        191.7320    84.7830    -8.6040 h1         1 HJR       0.036200
     58 H23        190.5200    91.4540   -13.8370 h1         1 HJR       0.100700
     59 H24        187.2700    91.1980   -18.6210 hc         1 HJR       0.045367
     60 H25        187.7960    90.5280   -20.1720 hc         1 HJR       0.045367
     61 H26        186.6990    89.6210   -19.1290 hc         1 HJR       0.045367
     62 H27        190.7470    93.6460   -18.3150 h1         1 HJR       0.030367
     63 H28        191.7660    92.4300   -17.5760 h1         1 HJR       0.030367
     64 H29        191.5750    92.4610   -19.3320 h1         1 HJR       0.030367
     65 H30        192.8880    91.2300   -15.7530 hn         1 HJR       0.473800
     66 H31        192.7210    88.5040   -10.2340 hn         1 HJR       0.356300
     67 H32        194.0360    88.5520   -11.1530 hn         1 HJR       0.356300
     68 H34        189.1510    92.1540   -18.8160 hn         1 HJR       0.351800
     69 H36        193.8350    86.0210    -8.1760 hn         1 HJR       0.342800
     70 H37        193.3560    86.1420    -9.7130 hn         1 HJR       0.342800
     71 H39        188.2130    87.7960   -18.9940 ho         1 HJR       0.407000
     72 H40        188.3940    89.0610   -12.9370 ho         1 HJR       0.413000
     73 C93        191.0480    92.6010   -18.3780 c3         1 HJR       0.150100
@<TRIPOS>BOND
     1     1     3 1   
     2     2     3 1   
     3     3    23 1   
     4     3    35 1   
     5     4    35 2   
     6     5     8 1   
     7     5    28 1   
     8     5    31 1   
     9     5    36 1   
    10     6     9 1   
    11     6    21 1   
    12     6    24 1   
    13     6    37 1   
    14     7    10 1   
    15     7    33 1   
    16     7    34 1   
    17     7    38 1   
    18     8    11 1   
    19     8    39 1   
    20     8    40 1   
    21     9    12 1   
    22     9    41 1   
    23     9    42 1   
    24    10    13 1   
    25    10    43 1   
    26    10    44 1   
    27    11    14 1   
    28    11    45 1   
    29    11    46 1   
    30    12    15 1   
    31    12    25 1   
    32    12    47 1   
    33    13    16 1   
    34    13    26 1   
    35    13    48 1   
    36    14    17 1   
    37    14    49 1   
    38    14    50 1   
    39    15    18 1   
    40    15    28 1   
    41    15    51 1   
    42    16    19 1   
    43    16    22 1   
    44    16    30 1   
    45    17    20 1   
    46    17    31 1   
    47    17    52 1   
    48    18    21 1   
    49    18    32 1   
    50    18    53 1   
    51    19    33 1   
    52    19    54 1   
    53    19    55 1   
    54    20    27 1   
    55    20    56 1   
    56    20    57 1   
    57    21    34 1   
    58    21    58 1   
    59    22    59 1   
    60    22    60 1   
    61    22    61 1   
    62    24    35 1   
    63    24    65 1   
    64    25    66 1   
    65    25    67 1   
    66    26    68 1   
    67    26    73 1   
    68    27    69 1   
    69    27    70 1   
    70    29    35 2   
    71    30    71 1   
    72    32    72 1   
    73    62    73 1   
    74    63    73 1   
    75    64    73 1   
@<TRIPOS>SUBSTRUCTURE
     1 HJR         1 TEMP              0 ****  ****    0 ROOT
