@<TRIPOS>MOLECULE
HJT
   18    17     1     0     0
SMALL
abcg2


@<TRIPOS>ATOM
      1 CA          -1.8310     0.4270    -0.5550 c3         1 HJT       0.025500
      2 CB          -0.5180    -0.1140     0.0410 c3         1 HJT      -0.059400
      3 N           -2.0100     1.8640    -0.4420 n8         1 HJT      -1.006200
      4 C           -3.0000    -0.3200     0.1250 c          1 HJT       0.725000
      5 OXT         -3.2190    -1.4810    -0.2730 o          1 HJT      -0.752500
      6 CG           0.7210     0.4520    -0.6310 c3         1 HJT      -0.347400
      7 O           -3.5940     0.2750     1.0460 o          1 HJT      -0.752500
      8 O1S          2.2020    -1.6460    -0.0760 o          1 HJT      -0.716867
      9 O2S          3.3360     0.4420    -0.7260 o          1 HJT      -0.716867
     10 O3S          2.2610     0.2610     1.4820 o          1 HJT      -0.716867
     11 S            2.2560    -0.1770     0.0710 s6         1 HJT       1.325600
     12 H1          -1.8350     0.1670    -1.6210 h1         1 HJT       0.033700
     13 H2          -0.4900     0.1110     1.1120 hc         1 HJT       0.053700
     14 H3          -0.5090    -1.2020    -0.0590 hc         1 HJT       0.053700
     15 H4          -2.1940     2.0890     0.5270 hn         1 HJT       0.375000
     16 H5          -1.1630     2.3540    -0.7010 hn         1 HJT       0.375000
     17 H8           0.7310     0.2110    -1.6970 h1         1 HJT       0.050700
     18 H9           0.7720     1.5400    -0.5380 h1         1 HJT       0.050700
@<TRIPOS>BOND
     1     1     2 1   
     2     1     3 1   
     3     1     4 1   
     4     1    12 1   
     5     2     6 1   
     6     2    13 1   
     7     2    14 1   
     8     3    15 1   
     9     3    16 1   
    10     4     5 1   
    11     4     7 1   
    12     6    11 1   
    13     6    17 1   
    14     6    18 1   
    15     8    11 1   
    16     9    11 1   
    17    10    11 1   
@<TRIPOS>SUBSTRUCTURE
     1 HJT         1 TEMP              0 ****  ****    0 ROOT
