@<TRIPOS>MOLECULE
HJT
   18    17     1     0     0
SMALL
No Charge or Current Charge


@<TRIPOS>ATOM
      1 CA          -1.8650     0.3740    -0.5240 c3         1 HJT       0.025500
      2 CB          -0.5230    -0.0740     0.1160 c3         1 HJT      -0.059400
      3 N           -1.9600     1.8790    -0.5270 n8         1 HJT      -1.006200
      4 C           -3.0870    -0.4180     0.1160 c          1 HJT       0.725000
      5 OXT         -3.7290    -1.1770    -0.6010 o          1 HJT      -0.752500
      6 CG           0.7420     0.4720    -0.6080 c3         1 HJT      -0.347400
      7 O           -3.3900    -0.1910     1.2820 o          1 HJT      -0.752500
      8 O1S          2.2270    -1.6020    -0.1000 o          1 HJT      -0.716867
      9 O2S          3.3290     0.5100    -0.7590 o          1 HJT      -0.716867
     10 O3S          2.2910     0.3060     1.4750 o          1 HJT      -0.716867
     11 S            2.3100    -0.1440     0.0750 s6         1 HJT       1.325600
     12 H1          -1.8250     0.0680    -1.5790 h1         1 HJT       0.033700
     13 H2          -0.5050     0.2260     1.1720 hc         1 HJT       0.053700
     14 H3          -0.4920    -1.1710     0.1060 hc         1 HJT       0.053700
     15 H4          -2.0770     2.1980     0.4420 hn         1 HJT       0.375000
     16 H5          -1.0440     2.2530    -0.7980 hn         1 HJT       0.375000
     17 H8           0.7290     0.1800    -1.6640 h1         1 HJT       0.050700
     18 H9           0.7870     1.5640    -0.5390 h1         1 HJT       0.050700
@<TRIPOS>BOND
     1     1     2 1   
     2     1     3 1   
     3     1     4 1   
     4     1    12 1   
     5     2     6 1   
     6     2    13 1   
     7     2    14 1   
     8     3    15 1   
     9     3    16 1   
    10     4     5 1   
    11     4     7 1   
    12     6    11 1   
    13     6    17 1   
    14     6    18 1   
    15     8    11 1   
    16     9    11 1   
    17    10    11 1   
@<TRIPOS>SUBSTRUCTURE
     1 HJT         1 TEMP              0 ****  ****    0 ROOT
