@<TRIPOS>MOLECULE
HJV
   22    21     1     0     0
SMALL
bcc


@<TRIPOS>ATOM
      1 CN           6.9030    83.4840    66.7970 c3         1 HJV       0.152100
      2 N            8.1430    84.2120    66.9910 n7         1 HJV      -0.794200
      3 CA           9.0880    84.0710    65.8840 c3         1 HJV       0.021500
      4 CB           8.5180    84.6780    64.6020 c3         1 HJV      -0.033400
      5 CG           9.5800    85.1540    63.6180 c3         1 HJV      -0.147400
      6 CD          10.3540    86.3550    64.1250 c          1 HJV       0.673100
      7 NE2         11.6820    86.3090    63.9260 nt         1 HJV      -0.686000
      8 OE1          9.8030    87.3080    64.6580 o          1 HJV      -0.631100
      9 C            9.6200    82.6150    65.7220 c          1 HJV       0.901600
     10 O            9.8650    82.0150    66.7900 o          1 HJV      -0.843300
     11 OXT          9.7890    82.1700    64.5690 o          1 HJV      -0.843300
     12 HN11         6.3070    83.5370    67.7100 h1         1 HJV       0.011700
     13 HN12         6.3080    83.9400    66.0050 h1         1 HJV       0.011700
     14 HN13         7.0260    82.4210    66.5470 h1         1 HJV       0.011700
     15 H2           8.5990    83.8280    67.8090 hn         1 HJV       0.357800
     16 HA           9.9620    84.6700    66.1790 h1         1 HJV       0.038700
     17 HB2          7.8820    85.5270    64.8660 hc         1 HJV       0.039200
     18 HB1          7.8750    83.9580    64.0930 hc         1 HJV       0.039200
     19 HG2          9.0970    85.4630    62.6850 hc         1 HJV       0.057700
     20 HG1         10.2480    84.3320    63.3650 hc         1 HJV       0.057700
     21 H11         12.2670    87.0830    64.1970 hn         1 HJV       0.301500
     22 H10         12.1300    85.5170    63.5000 hn         1 HJV       0.301500
@<TRIPOS>BOND
     1     1     2 1   
     2     1    12 1   
     3     1    13 1   
     4     1    14 1   
     5     2     3 1   
     6     2    15 1   
     7     3     4 1   
     8     3     9 1   
     9     3    16 1   
    10     4     5 1   
    11     4    17 1   
    12     4    18 1   
    13     5     6 1   
    14     5    19 1   
    15     5    20 1   
    16     6     7 1   
    17     6     8 2   
    18     7    21 1   
    19     7    22 1   
    20     9    10 1   
    21     9    11 1   
@<TRIPOS>SUBSTRUCTURE
     1 HJV         1 TEMP              0 ****  ****    0 ROOT
