@<TRIPOS>MOLECULE
HJV
   22    21     1     0     0
SMALL
No Charge or Current Charge


@<TRIPOS>ATOM
      1 CN           6.8760    83.2770    66.8020 c3         1 HJV       0.152100
      2 N            8.0140    84.2000    66.9820 n7         1 HJV      -0.794200
      3 CA           9.0480    84.2270    65.8770 c3         1 HJV       0.021500
      4 CB           8.4430    84.8660    64.5890 c3         1 HJV      -0.033400
      5 CG           9.4780    85.2570    63.5000 c3         1 HJV      -0.147400
      6 CD          10.4470    86.3450    63.9740 c          1 HJV       0.673100
      7 NE2         11.7020    85.9450    64.2670 nt         1 HJV      -0.686000
      8 OE1         10.1430    87.5220    64.0690 o          1 HJV      -0.631100
      9 C            9.7930    82.8450    65.6070 c          1 HJV       0.901600
     10 O           10.8030    82.5960    66.2580 o          1 HJV      -0.843300
     11 OXT          9.3580    82.0680    64.7620 o          1 HJV      -0.843300
     12 HN11         6.1970    83.3420    67.6620 h1         1 HJV       0.011700
     13 HN12         6.3030    83.5240    65.8990 h1         1 HJV       0.011700
     14 HN13         7.2230    82.2380    66.7220 h1         1 HJV       0.011700
     15 H2           8.4900    83.9350    67.8530 hn         1 HJV       0.357800
     16 HA           9.8390    84.9110    66.2100 h1         1 HJV       0.038700
     17 HB2          7.8820    85.7670    64.8670 hc         1 HJV       0.039200
     18 HB1          7.7150    84.1770    64.1450 hc         1 HJV       0.039200
     19 HG2          8.9260    85.6410    62.6340 hc         1 HJV       0.057700
     20 HG1         10.0360    84.3600    63.2080 hc         1 HJV       0.057700
     21 H11         12.3770    86.6300    64.5730 hn         1 HJV       0.301500
     22 H10         11.9570    84.9730    64.1780 hn         1 HJV       0.301500
@<TRIPOS>BOND
     1     1     2 1   
     2     1    12 1   
     3     1    13 1   
     4     1    14 1   
     5     2     3 1   
     6     2    15 1   
     7     3     4 1   
     8     3     9 1   
     9     3    16 1   
    10     4     5 1   
    11     4    17 1   
    12     4    18 1   
    13     5     6 1   
    14     5    19 1   
    15     5    20 1   
    16     6     7 1   
    17     6     8 2   
    18     7    21 1   
    19     7    22 1   
    20     9    10 1   
    21     9    11 1   
@<TRIPOS>SUBSTRUCTURE
     1 HJV         1 TEMP              0 ****  ****    0 ROOT
