@<TRIPOS>MOLECULE
HJW
   41    42     1     0     0
SMALL
abcg2


@<TRIPOS>ATOM
      1 C2          -0.0720    -1.5820     0.6560 ca         1 HJW       0.131000
      2 C3           0.2080    -1.0560    -0.6110 ca         1 HJW      -0.064000
      3 C11          1.5080    -1.2200    -2.7920 c3         1 HJW      -0.051800
      4 C16         -1.6350     0.2050    -1.6860 c3         1 HJW       0.065700
      5 C18         -1.6730    -0.6830    -2.9160 c3         1 HJW      -0.097100
      6 C22         -2.7470    -0.1870    -0.7160 c          1 HJW       0.574100
      7 C25         -4.2320     0.6310     0.9310 c3         1 HJW       0.164600
      8 C28         -4.6050     1.9710     1.5170 c3         1 HJW      -0.096100
      9 CL1         -0.9430    -0.6260     1.8030 cl         1 HJW      -0.181000
     10 C4           1.0420    -1.7710    -1.4770 ca         1 HJW      -0.048300
     11 C5           1.5090    -3.0190    -1.0710 ca         1 HJW      -0.116000
     12 C7           1.1840    -3.5430     0.1660 ca         1 HJW      -0.088000
     13 C9           0.4020    -2.8170     1.0520 ca         1 HJW      -0.102000
     14 N15         -0.3390     0.1960    -0.9890 n          1 HJW      -0.237400
     15 O23         -3.1570    -1.3130    -0.5890 o          1 HJW      -0.486000
     16 O24         -3.2070     0.8540    -0.0510 os         1 HJW      -0.428100
     17 C32          0.2130     1.3920    -0.6160 c          1 HJW       0.662700
     18 O33         -0.3410     2.4500    -0.8620 o          1 HJW      -0.580100
     19 C34          1.5260     1.4310     0.0740 cc         1 HJW      -0.293600
     20 S35          2.5980     0.1300     0.4690 ss         1 HJW       0.258000
     21 C36          3.7390     1.1930     1.1510 cc         1 HJW      -0.245000
     22 C38          3.3320     2.4940     1.0920 cd         1 HJW      -0.148000
     23 C40          2.0700     2.6260     0.4750 cd         1 HJW      -0.065000
     24 H1           1.0190    -1.7260    -3.6250 hc         1 HJW       0.051033
     25 H2           1.3210    -0.1550    -2.8950 hc         1 HJW       0.051033
     26 H3           2.5800    -1.3850    -2.8990 hc         1 HJW       0.051033
     27 H4          -1.8060     1.2340    -1.9950 h1         1 HJW       0.110700
     28 H5          -1.4750    -1.7300    -2.6920 hc         1 HJW       0.052700
     29 H6          -2.6620    -0.6210    -3.3700 hc         1 HJW       0.052700
     30 H7          -0.9530    -0.3390    -3.6550 hc         1 HJW       0.052700
     31 H8          -3.8550    -0.0430     1.7030 h1         1 HJW       0.047200
     32 H9          -5.0940     0.1550     0.4620 h1         1 HJW       0.047200
     33 H10         -3.7500     2.4570     1.9860 hc         1 HJW       0.047033
     34 H11         -5.0140     2.6390     0.7590 hc         1 HJW       0.047033
     35 H12         -5.3690     1.8260     2.2810 hc         1 HJW       0.047033
     36 H13          2.1570    -3.5770    -1.7350 ha         1 HJW       0.120000
     37 H14          1.5620    -4.5130     0.4600 ha         1 HJW       0.121000
     38 H15          0.1760    -3.2000     2.0370 ha         1 HJW       0.135000
     39 H16          4.6570     0.8030     1.5660 h4         1 HJW       0.150000
     40 H17          3.9110     3.3230     1.4700 ha         1 HJW       0.137000
     41 H18          1.5740     3.5740     0.3270 ha         1 HJW       0.153000
@<TRIPOS>BOND
     1     1     2 ar  
     2     1     9 1   
     3     1    13 ar  
     4     2    10 ar  
     5     2    14 1   
     6     3    10 1   
     7     3    24 1   
     8     3    25 1   
     9     3    26 1   
    10     4     5 1   
    11     4     6 1   
    12     4    14 1   
    13     4    27 1   
    14     5    28 1   
    15     5    29 1   
    16     5    30 1   
    17     6    15 2   
    18     6    16 1   
    19     7     8 1   
    20     7    16 1   
    21     7    31 1   
    22     7    32 1   
    23     8    33 1   
    24     8    34 1   
    25     8    35 1   
    26    10    11 ar  
    27    11    12 ar  
    28    11    36 1   
    29    12    13 ar  
    30    12    37 1   
    31    13    38 1   
    32    14    17 1   
    33    17    18 2   
    34    17    19 1   
    35    19    20 1   
    36    19    23 2   
    37    20    21 1   
    38    21    22 2   
    39    21    39 1   
    40    22    23 1   
    41    22    40 1   
    42    23    41 1   
@<TRIPOS>SUBSTRUCTURE
     1 HJW         1 TEMP              0 ****  ****    0 ROOT
