@<TRIPOS>MOLECULE
HJW
   41    42     1     0     0
SMALL
No Charge or Current Charge


@<TRIPOS>ATOM
      1 C2          -0.1620    -2.2290     0.2430 ca         1 HJW       0.131000
      2 C3           0.1730    -1.3630    -0.8300 ca         1 HJW      -0.064000
      3 C11          1.7860    -0.7030    -2.7210 c3         1 HJW      -0.051800
      4 C16         -1.9200    -0.2820    -1.7470 c3         1 HJW       0.065700
      5 C18         -2.0800    -1.5980    -2.5620 c3         1 HJW      -0.097100
      6 C22         -3.1260    -0.0660    -0.7860 c          1 HJW       0.574100
      7 C25         -3.9750     1.3160     0.9990 c3         1 HJW       0.164600
      8 C28         -3.5150     2.5540     1.7840 c3         1 HJW      -0.096100
      9 Cl1         -1.5160    -1.8900     1.3170 cl         1 HJW      -0.181000
     10 C4           1.3450    -1.6240    -1.5860 ca         1 HJW      -0.048300
     11 C5           2.1170    -2.7690    -1.3040 ca         1 HJW      -0.116000
     12 C7           1.7520    -3.6410    -0.2680 ca         1 HJW      -0.088000
     13 C9           0.6180    -3.3660     0.5090 ca         1 HJW      -0.102000
     14 N15         -0.5780    -0.1510    -1.0700 n          1 HJW      -0.237400
     15 O23         -4.1050    -0.8040    -0.7320 o          1 HJW      -0.486000
     16 O24         -2.9590     1.0260     0.0280 os         1 HJW      -0.428100
     17 C32         -0.0840     1.1710    -0.8270 c          1 HJW       0.662700
     18 O33         -0.5940     2.1380    -1.3820 o          1 HJW      -0.580100
     19 C34          1.0720     1.3770     0.0980 cc         1 HJW      -0.293600
     20 S35          1.8280     0.1850     1.1580 ss         1 HJW       0.258000
     21 C36          2.9260     1.3950     1.8110 cc         1 HJW      -0.245000
     22 C38          2.6910     2.6230     1.2490 cd         1 HJW      -0.148000
     23 C40          1.6420     2.6170     0.2910 cd         1 HJW      -0.065000
     24 H1           2.4880    -1.2040    -3.3970 hc         1 HJW       0.051033
     25 H2           0.9350    -0.3740    -3.3290 hc         1 HJW       0.051033
     26 H3           2.2880     0.1900    -2.3300 hc         1 HJW       0.051033
     27 H4          -2.0050     0.5310    -2.4780 h1         1 HJW       0.110700
     28 H5          -2.1060    -2.4750    -1.9050 hc         1 HJW       0.052700
     29 H6          -3.0130    -1.5810    -3.1400 hc         1 HJW       0.052700
     30 H7          -1.2530    -1.7190    -3.2720 hc         1 HJW       0.052700
     31 H8          -4.1080     0.4730     1.6910 h1         1 HJW       0.047200
     32 H9          -4.9370     1.5240     0.5120 h1         1 HJW       0.047200
     33 H10         -2.5600     2.3590     2.2870 hc         1 HJW       0.047033
     34 H11         -3.3890     3.4120     1.1130 hc         1 HJW       0.047033
     35 H12         -4.2570     2.8180     2.5460 hc         1 HJW       0.047033
     36 H13          3.0090    -2.9830    -1.8890 ha         1 HJW       0.120000
     37 H14          2.3560    -4.5210    -0.0570 ha         1 HJW       0.121000
     38 H15          0.3500    -4.0260     1.3300 ha         1 HJW       0.135000
     39 H16          3.6530     1.1090     2.5600 h4         1 HJW       0.150000
     40 H17          3.2490     3.5160     1.5150 ha         1 HJW       0.137000
     41 H18          1.3260     3.5130    -0.2360 ha         1 HJW       0.153000
@<TRIPOS>BOND
     1     1     2 ar  
     2     1     9 1   
     3     1    13 ar  
     4     2    10 ar  
     5     2    14 1   
     6     3    10 1   
     7     3    24 1   
     8     3    25 1   
     9     3    26 1   
    10     4     5 1   
    11     4     6 1   
    12     4    14 1   
    13     4    27 1   
    14     5    28 1   
    15     5    29 1   
    16     5    30 1   
    17     6    15 2   
    18     6    16 1   
    19     7     8 1   
    20     7    16 1   
    21     7    31 1   
    22     7    32 1   
    23     8    33 1   
    24     8    34 1   
    25     8    35 1   
    26    10    11 ar  
    27    11    12 ar  
    28    11    36 1   
    29    12    13 ar  
    30    12    37 1   
    31    13    38 1   
    32    14    17 1   
    33    17    18 2   
    34    17    19 1   
    35    19    20 1   
    36    19    23 2   
    37    20    21 1   
    38    21    22 2   
    39    21    39 1   
    40    22    23 1   
    41    22    40 1   
    42    23    41 1   
@<TRIPOS>SUBSTRUCTURE
     1 HJW         1 TEMP              0 ****  ****    0 ROOT
