@<TRIPOS>MOLECULE
HJX
   58    58     1     0     0
SMALL
bcc


@<TRIPOS>ATOM
      1 CAA         13.3510     0.5810     0.0780 c3         1 HJX      -0.088100
      2 OAB         -7.6880     2.3210     0.2090 o          1 HJX      -0.784800
      3 OAC         -5.4870     2.3360     0.0160 o          1 HJX      -0.784800
      4 CAE         -6.8710    -2.5660     0.1380 ca         1 HJX      -0.059000
      5 CAF         -8.0080    -1.7910     0.2120 ca         1 HJX      -0.274000
      6 CAG         -5.6070    -1.9950     0.0540 ca         1 HJX      -0.331000
      7 CAH         12.1140    -0.3060     0.0760 c3         1 HJX      -0.075400
      8 CAI         10.8170     0.4940     0.0390 c3         1 HJX      -0.075400
      9 CAJ          9.5680    -0.3780     0.0360 c3         1 HJX      -0.074400
     10 CAK          8.2740     0.4250    -0.0030 c3         1 HJX      -0.074400
     11 CAL          7.0230    -0.4450    -0.0050 c3         1 HJX      -0.074400
     12 CAM          5.7290     0.3590    -0.0420 c3         1 HJX      -0.074400
     13 CAN          4.4800    -0.5130    -0.0430 c3         1 HJX      -0.074400
     14 CAO          3.1840     0.2890    -0.0720 c3         1 HJX      -0.074400
     15 CAP          1.9380    -0.5880    -0.0700 c3         1 HJX      -0.074400
     16 CAQ          0.6390     0.2080    -0.0860 c3         1 HJX      -0.074400
     17 CAR         -0.5990    -0.6800    -0.0770 c3         1 HJX      -0.074400
     18 CAS         -1.9010     0.1120    -0.0750 c3         1 HJX      -0.081400
     19 CAT         -3.1030    -0.8090    -0.0530 c3         1 HJX       0.147400
     20 OAU         -4.2750    -0.0130    -0.0320 os         1 HJX      -0.281900
     21 CAW         -7.8880    -0.3950     0.2040 ca         1 HJX       0.255100
     22 CAX         -5.4760    -0.6060     0.0440 ca         1 HJX       0.217100
     23 CAY         -6.6170     0.2240     0.1160 ca         1 HJX      -0.316600
     24 HAA         13.3590     1.2420     0.9460 hc         1 HJX       0.029700
     25 HAAA        14.2700    -0.0070     0.1030 hc         1 HJX       0.029700
     26 HAAB        13.3860     1.2090    -0.8140 hc         1 HJX       0.029700
     27 HOAD        -8.6150     1.3210     0.2650 ho         1 HJX       0.516000
     28 HAE         -6.9590    -3.6450     0.1450 ha         1 HJX       0.095000
     29 HAF         -8.9900    -2.2400     0.2800 ha         1 HJX       0.121000
     30 HAG         -4.7460    -2.6440    -0.0020 ha         1 HJX       0.108000
     31 HAH         12.1470    -0.9810    -0.7850 hc         1 HJX       0.035700
     32 HAHA        12.1180    -0.9470     0.9630 hc         1 HJX       0.035700
     33 HAI         10.7850     1.1710     0.9000 hc         1 HJX       0.036700
     34 HAIA        10.8130     1.1360    -0.8500 hc         1 HJX       0.036700
     35 HAJ          9.6000    -1.0560    -0.8250 hc         1 HJX       0.035700
     36 HAJA         9.5700    -1.0190     0.9250 hc         1 HJX       0.035700
     37 HAK          8.2410     1.1030     0.8580 hc         1 HJX       0.036700
     38 HAKA         8.2710     1.0660    -0.8920 hc         1 HJX       0.036700
     39 HAL          7.0540    -1.1220    -0.8670 hc         1 HJX       0.035700
     40 HALA         7.0260    -1.0870     0.8830 hc         1 HJX       0.035700
     41 HAM          5.6980     1.0360     0.8200 hc         1 HJX       0.037200
     42 HAMA         5.7250     1.0010    -0.9300 hc         1 HJX       0.037200
     43 HAN          4.5090    -1.1870    -0.9060 hc         1 HJX       0.035700
     44 HANA         4.4870    -1.1570     0.8440 hc         1 HJX       0.035700
     45 HAO          3.1550     0.9630     0.7910 hc         1 HJX       0.037700
     46 HAOA         3.1740     0.9330    -0.9590 hc         1 HJX       0.037700
     47 HAP          1.9640    -1.2580    -0.9370 hc         1 HJX       0.033700
     48 HAPA         1.9540    -1.2360     0.8130 hc         1 HJX       0.033700
     49 HAQ          0.6110     0.8770     0.7810 hc         1 HJX       0.040700
     50 HAQA         0.6170     0.8550    -0.9710 hc         1 HJX       0.040700
     51 HAR         -0.5740    -1.3430    -0.9490 hc         1 HJX       0.031200
     52 HARA        -0.5670    -1.3330     0.8020 hc         1 HJX       0.031200
     53 HAS         -1.9300     0.7700     0.7980 hc         1 HJX       0.061200
     54 HASA        -1.9460     0.7550    -0.9600 hc         1 HJX       0.061200
     55 HAT         -3.0940    -1.4600    -0.9350 h1         1 HJX       0.017200
     56 HATA        -3.0610    -1.4560     0.8320 h1         1 HJX       0.017200
     57 CAV         -6.5530     1.7330     0.1100 c          1 HJX       0.940200
     58 OAD         -8.9900     0.3340     0.2820 oh         1 HJX      -0.620100
@<TRIPOS>BOND
     1     1     7 1   
     2     1    24 1   
     3     1    25 1   
     4     1    26 1   
     5     2    57 1   
     6     3    57 1   
     7     4     5 ar  
     8     4     6 ar  
     9     4    28 1   
    10     5    21 ar  
    11     5    29 1   
    12     6    22 ar  
    13     6    30 1   
    14     7     8 1   
    15     7    31 1   
    16     7    32 1   
    17     8     9 1   
    18     8    33 1   
    19     8    34 1   
    20     9    10 1   
    21     9    35 1   
    22     9    36 1   
    23    10    11 1   
    24    10    37 1   
    25    10    38 1   
    26    11    12 1   
    27    11    39 1   
    28    11    40 1   
    29    12    13 1   
    30    12    41 1   
    31    12    42 1   
    32    13    14 1   
    33    13    43 1   
    34    13    44 1   
    35    14    15 1   
    36    14    45 1   
    37    14    46 1   
    38    15    16 1   
    39    15    47 1   
    40    15    48 1   
    41    16    17 1   
    42    16    49 1   
    43    16    50 1   
    44    17    18 1   
    45    17    51 1   
    46    17    52 1   
    47    18    19 1   
    48    18    53 1   
    49    18    54 1   
    50    19    20 1   
    51    19    55 1   
    52    19    56 1   
    53    20    22 1   
    54    21    23 ar  
    55    21    58 1   
    56    22    23 ar  
    57    23    57 1   
    58    27    58 1   
@<TRIPOS>SUBSTRUCTURE
     1 HJX         1 TEMP              0 ****  ****    0 ROOT
