@<TRIPOS>MOLECULE
HJX
   58    58     1     0     0
SMALL
No Charge or Current Charge


@<TRIPOS>ATOM
      1 CAA         13.4980     0.7060     0.0060 c3         1 HJX      -0.088100
      2 OAB         -7.3140     2.4610     0.5980 o          1 HJX      -0.679500
      3 OAC         -5.6980     2.2290    -0.8040 o          1 HJX      -0.679500
      4 CAE         -7.1740    -2.5070     0.0600 ca         1 HJX      -0.041000
      5 CAF         -8.2530    -1.6180     0.1020 ca         1 HJX      -0.256000
      6 CAG         -5.8660    -2.0040     0.0250 ca         1 HJX      -0.313000
      7 CAH         12.2540    -0.2040    -0.0020 c3         1 HJX      -0.075400
      8 CAI         10.9270     0.5850     0.0080 c3         1 HJX      -0.075400
      9 CAJ          9.6810    -0.3280    -0.0000 c3         1 HJX      -0.074400
     10 CAK          8.3540     0.4620     0.0100 c3         1 HJX      -0.074400
     11 CAL          7.1080    -0.4510     0.0020 c3         1 HJX      -0.074400
     12 CAM          5.7800     0.3390     0.0120 c3         1 HJX      -0.074400
     13 CAN          4.5340    -0.5740     0.0040 c3         1 HJX      -0.074400
     14 CAO          3.2070     0.2160     0.0140 c3         1 HJX      -0.074400
     15 CAP          1.9610    -0.6970     0.0060 c3         1 HJX      -0.074400
     16 CAQ          0.6340     0.0920     0.0160 c3         1 HJX      -0.074400
     17 CAR         -0.6120    -0.8210     0.0080 c3         1 HJX      -0.074400
     18 CAS         -1.9400    -0.0330     0.0190 c3         1 HJX      -0.081400
     19 CAT         -3.1800    -0.9470     0.0110 c3         1 HJX       0.170600
     20 OAU         -4.3440    -0.1050     0.0220 os         1 HJX      -0.305100
     21 CAW         -8.0270    -0.2380     0.0950 ca         1 HJX       0.255100
     22 CAX         -5.6290    -0.6100     0.0140 ca         1 HJX       0.217100
     23 CAY         -6.7220     0.2850     0.0310 ca         1 HJX      -0.316600
     24 HAA         13.5110     1.3370     0.9020 hc         1 HJX       0.029700
     25 HAAA        14.4130     0.1020    -0.0020 hc         1 HJX       0.029700
     26 HAAB        13.5080     1.3560    -0.8780 hc         1 HJX       0.029700
     27 HOAD        -8.6840     1.4880     0.3640 ho         1 HJX       0.555000
     28 HAE         -7.3480    -3.5810     0.0690 ha         1 HJX       0.077000
     29 HAF         -9.2680    -2.0010     0.1460 ha         1 HJX       0.103000
     30 HAG         -5.0470    -2.7160     0.0120 ha         1 HJX       0.090000
     31 HAH         12.2890    -0.8470    -0.8910 hc         1 HJX       0.035700
     32 HAHA        12.2910    -0.8650     0.8730 hc         1 HJX       0.035700
     33 HAI         10.8970     1.2280     0.8960 hc         1 HJX       0.036700
     34 HAIA        10.8950     1.2460    -0.8670 hc         1 HJX       0.036700
     35 HAJ          9.7110    -0.9700    -0.8890 hc         1 HJX       0.035700
     36 HAJA         9.7130    -0.9890     0.8750 hc         1 HJX       0.035700
     37 HAK          8.3240     1.1050     0.8990 hc         1 HJX       0.036700
     38 HAKA         8.3210     1.1230    -0.8650 hc         1 HJX       0.036700
     39 HAL          7.1380    -1.0930    -0.8870 hc         1 HJX       0.035700
     40 HALA         7.1400    -1.1120     0.8770 hc         1 HJX       0.035700
     41 HAM          5.7500     0.9810     0.9010 hc         1 HJX       0.037200
     42 HAMA         5.7480     1.0000    -0.8630 hc         1 HJX       0.037200
     43 HAN          4.5640    -1.2170    -0.8850 hc         1 HJX       0.035700
     44 HANA         4.5670    -1.2350     0.8790 hc         1 HJX       0.035700
     45 HAO          3.1770     0.8580     0.9030 hc         1 HJX       0.037700
     46 HAOA         3.1750     0.8770    -0.8610 hc         1 HJX       0.037700
     47 HAP          1.9910    -1.3400    -0.8830 hc         1 HJX       0.033700
     48 HAPA         1.9940    -1.3580     0.8810 hc         1 HJX       0.033700
     49 HAQ          0.6040     0.7350     0.9050 hc         1 HJX       0.040700
     50 HAQA         0.6010     0.7530    -0.8590 hc         1 HJX       0.040700
     51 HAR         -0.5820    -1.4640    -0.8810 hc         1 HJX       0.031200
     52 HARA        -0.5790    -1.4820     0.8830 hc         1 HJX       0.031200
     53 HAS         -1.9750     0.6080     0.9080 hc         1 HJX       0.061200
     54 HASA        -1.9780     0.6260    -0.8570 hc         1 HJX       0.061200
     55 HAT         -3.1660    -1.5760    -0.8880 h1         1 HJX       0.017200
     56 HATA        -3.1630    -1.5940     0.8980 h1         1 HJX       0.017200
     57 CAV         -6.5130     1.7700    -0.0190 c          1 HJX       0.729600
     58 OAD         -9.0920     0.5990     0.1700 oh         1 HJX      -0.659100
@<TRIPOS>BOND
     1     1     7 1   
     2     1    24 1   
     3     1    25 1   
     4     1    26 1   
     5     2    57 1   
     6     3    57 1   
     7     4     5 ar  
     8     4     6 ar  
     9     4    28 1   
    10     5    21 ar  
    11     5    29 1   
    12     6    22 ar  
    13     6    30 1   
    14     7     8 1   
    15     7    31 1   
    16     7    32 1   
    17     8     9 1   
    18     8    33 1   
    19     8    34 1   
    20     9    10 1   
    21     9    35 1   
    22     9    36 1   
    23    10    11 1   
    24    10    37 1   
    25    10    38 1   
    26    11    12 1   
    27    11    39 1   
    28    11    40 1   
    29    12    13 1   
    30    12    41 1   
    31    12    42 1   
    32    13    14 1   
    33    13    43 1   
    34    13    44 1   
    35    14    15 1   
    36    14    45 1   
    37    14    46 1   
    38    15    16 1   
    39    15    47 1   
    40    15    48 1   
    41    16    17 1   
    42    16    49 1   
    43    16    50 1   
    44    17    18 1   
    45    17    51 1   
    46    17    52 1   
    47    18    19 1   
    48    18    53 1   
    49    18    54 1   
    50    19    20 1   
    51    19    55 1   
    52    19    56 1   
    53    20    22 1   
    54    21    23 ar  
    55    21    58 1   
    56    22    23 ar  
    57    23    57 1   
    58    27    58 1   
@<TRIPOS>SUBSTRUCTURE
     1 HJX         1 TEMP              0 ****  ****    0 ROOT
