@<TRIPOS>MOLECULE
HJY
   25    25     1     0     0
SMALL
bcc


@<TRIPOS>ATOM
      1 CN           5.0620    85.5780    74.5170 c3         1 HJY       0.159100
      2 N            5.7840    86.5150    75.3550 n7         1 HJY      -0.808200
      3 CA           7.2260    86.4240    75.2020 c3         1 HJY       0.025500
      4 CB           7.8730    87.2970    76.2900 c3         1 HJY      -0.020100
      5 CG           9.3720    87.2560    76.2810 ca         1 HJY      -0.010300
      6 CD1         10.0560    86.1760    76.8340 ca         1 HJY      -0.114000
      7 CE1         11.4410    86.1090    76.8170 ca         1 HJY      -0.105000
      8 CZ          12.1580    87.1470    76.2370 ca         1 HJY       0.057900
      9 I           14.2620    87.0640    76.2060 i          1 HJY      -0.243900
     10 CE2         11.5080    88.2390    75.6840 ca         1 HJY      -0.105000
     11 CD2         10.1200    88.2830    75.7120 ca         1 HJY      -0.114000
     12 C            7.7540    86.8580    73.8110 c          1 HJY       0.901600
     13 O            7.2060    87.8660    73.3140 o          1 HJY      -0.833300
     14 HN12         3.9880    85.7180    74.6510 h1         1 HJY       0.014367
     15 HN13         5.2740    85.6620    73.4430 h1         1 HJY       0.014367
     16 HN11         5.2960    84.5550    74.8190 h1         1 HJY       0.014367
     17 H2           5.5130    87.4540    75.0850 hn         1 HJY       0.354800
     18 HA           7.5170    85.3830    75.3840 h1         1 HJY       0.043700
     19 HB1          7.5320    88.3290    76.1610 hc         1 HJY       0.036700
     20 HB2          7.5000    86.9610    77.2610 hc         1 HJY       0.036700
     21 HD1          9.4980    85.3650    77.2880 ha         1 HJY       0.135500
     22 HE1         11.9440    85.2580    77.2550 ha         1 HJY       0.127500
     23 HE2         12.0610    89.0520    75.2340 ha         1 HJY       0.127500
     24 HD2          9.6130    89.1350    75.2760 ha         1 HJY       0.135500
     25 OXT          8.6920    86.1970    73.3270 o          1 HJY      -0.833300
@<TRIPOS>BOND
     1     1     2 1   
     2     1    14 1   
     3     1    15 1   
     4     1    16 1   
     5     2     3 1   
     6     2    17 1   
     7     3     4 1   
     8     3    12 1   
     9     3    18 1   
    10     4     5 1   
    11     4    19 1   
    12     4    20 1   
    13     5     6 ar  
    14     5    11 ar  
    15     6     7 ar  
    16     6    21 1   
    17     7     8 ar  
    18     7    22 1   
    19     8     9 1   
    20     8    10 ar  
    21    10    11 ar  
    22    10    23 1   
    23    11    24 1   
    24    12    13 1   
    25    12    25 1   
@<TRIPOS>SUBSTRUCTURE
     1 HJY         1 TEMP              0 ****  ****    0 ROOT
