@<TRIPOS>MOLECULE
HJY
   25    25     1     0     0
SMALL
No Charge or Current Charge


@<TRIPOS>ATOM
      1 CN           5.0070    85.4640    74.5640 c3         1 HJY       0.159100
      2 N            5.7390    86.4540    75.3740 n7         1 HJY      -0.808200
      3 CA           7.2360    86.4760    75.1740 c3         1 HJY       0.025500
      4 CB           7.8750    87.3880    76.2520 c3         1 HJY      -0.020100
      5 CG           9.3970    87.3010    76.2680 ca         1 HJY      -0.010300
      6 CD1         10.0350    86.1690    76.8130 ca         1 HJY      -0.114000
      7 CE1         11.4390    86.0850    76.8280 ca         1 HJY      -0.105000
      8 CZ          12.2090    87.1330    76.3000 ca         1 HJY       0.057900
      9 I           14.3620    87.0040    76.3230 i          1 HJY      -0.243900
     10 CE2         11.5820    88.2650    75.7560 ca         1 HJY      -0.105000
     11 CD2         10.1780    88.3490    75.7410 ca         1 HJY      -0.114000
     12 C            7.7270    86.8900    73.7210 c          1 HJY       0.901600
     13 O            7.4120    87.9920    73.2790 o          1 HJY      -0.833300
     14 HN12         3.9330    85.5080    74.7860 h1         1 HJY       0.014367
     15 HN13         5.1420    85.6590    73.4920 h1         1 HJY       0.014367
     16 HN11         5.3610    84.4470    74.7790 h1         1 HJY       0.014367
     17 H2           5.3770    87.3860    75.1360 hn         1 HJY       0.354800
     18 HA           7.6210    85.4620    75.3480 h1         1 HJY       0.043700
     19 HB1          7.5500    88.4240    76.0940 hc         1 HJY       0.036700
     20 HB2          7.4910    87.0980    77.2380 hc         1 HJY       0.036700
     21 HD1          9.4430    85.3550    77.2250 ha         1 HJY       0.135500
     22 HE1         11.9290    85.2100    77.2490 ha         1 HJY       0.127500
     23 HE2         12.1810    89.0750    75.3470 ha         1 HJY       0.127500
     24 HD2          9.6970    89.2280    75.3160 ha         1 HJY       0.135500
     25 OXT          8.3270    86.0610    73.0440 o          1 HJY      -0.833300
@<TRIPOS>BOND
     1     1     2 1   
     2     1    14 1   
     3     1    15 1   
     4     1    16 1   
     5     2     3 1   
     6     2    17 1   
     7     3     4 1   
     8     3    12 1   
     9     3    18 1   
    10     4     5 1   
    11     4    19 1   
    12     4    20 1   
    13     5     6 ar  
    14     5    11 ar  
    15     6     7 ar  
    16     6    21 1   
    17     7     8 ar  
    18     7    22 1   
    19     8     9 1   
    20     8    10 ar  
    21    10    11 ar  
    22    10    23 1   
    23    11    24 1   
    24    12    13 1   
    25    12    25 1   
@<TRIPOS>SUBSTRUCTURE
     1 HJY         1 TEMP              0 ****  ****    0 ROOT
