@<TRIPOS>MOLECULE
HJZ
   50    53     1     0     0
SMALL
abcg2


@<TRIPOS>ATOM
      1 S1          -1.9400    -0.9860     1.4290 ss         1 HJZ       0.252000
      2 C2          -2.3560    -0.4960    -0.1710 cc         1 HJZ      -0.259000
      3 C3          -1.2480    -0.5210    -0.9760 cd         1 HJZ      -0.105000
      4 C4          -0.0640    -0.9380    -0.3090 cd         1 HJZ      -0.113000
      5 C5          -0.2910    -1.2320     1.0090 cc         1 HJZ      -0.190600
      6 C6          -3.7230    -0.1260    -0.5350 ca         1 HJZ       0.044000
      7 C7           0.6180    -1.7340     2.0980 c          1 HJZ       0.727600
      8 C8           1.2280    -1.0410    -1.0230 ca         1 HJZ       0.057000
      9 O9           1.7970    -1.9700     1.7920 o          1 HJZ      -0.700000
     10 O10          0.0680    -1.8670     3.2110 o          1 HJZ      -0.700000
     11 C11          2.2220    -0.0620    -0.9080 ca         1 HJZ      -0.035300
     12 C12          3.5660    -1.2850    -2.5240 ca         1 HJZ      -0.130000
     13 C13          2.5730    -2.2470    -2.6390 ca         1 HJZ      -0.125000
     14 C14          3.3820    -0.2080    -1.6700 ca         1 HJZ      -0.116000
     15 C15          1.4120    -2.1150    -1.8930 ca         1 HJZ      -0.098000
     16 C16         -4.8200    -0.5600     0.2150 ca         1 HJZ      -0.117000
     17 C17         -6.3360     0.5820    -1.2660 ca         1 HJZ      -0.138000
     18 C18         -5.2540     1.0170    -2.0210 ca         1 HJZ      -0.112500
     19 C19         -6.1110    -0.2050    -0.1440 ca         1 HJZ      -0.112500
     20 C20         -3.9620     0.6720    -1.6580 ca         1 HJZ      -0.117000
     21 C21          2.0640     1.1460    -0.0190 c6         1 HJZ      -0.014400
     22 C22          3.1500     1.2110     1.0600 c6         1 HJZ      -0.069400
     23 C23          2.9900     2.4430     1.9430 c6         1 HJZ      -0.069400
     24 C24          2.9720     3.7350     1.1290 c6         1 HJZ      -0.064700
     25 C25          1.8820     3.6650     0.0620 c6         1 HJZ      -0.069400
     26 C26          2.0330     2.4430    -0.8360 c6         1 HJZ      -0.069400
     27 C27          2.8010     4.9570     2.0220 c3         1 HJZ      -0.083100
     28 H3          -1.2680    -0.2630    -2.0270 ha         1 HJZ       0.111000
     29 H12          4.4790    -1.3670    -3.1010 ha         1 HJZ       0.091000
     30 H13          2.6980    -3.0920    -3.3040 ha         1 HJZ       0.093000
     31 H14          4.1620     0.5410    -1.5990 ha         1 HJZ       0.096000
     32 H15          0.6320    -2.8620    -1.9800 ha         1 HJZ       0.109000
     33 H16         -4.6700    -1.1950     1.0810 ha         1 HJZ       0.116500
     34 H17         -7.3440     0.8540    -1.5490 ha         1 HJZ       0.097000
     35 H18         -5.4150     1.6350    -2.8950 ha         1 HJZ       0.099000
     36 H19         -6.9450    -0.5530     0.4520 ha         1 HJZ       0.099000
     37 H20         -3.1300     1.0370    -2.2460 ha         1 HJZ       0.116500
     38 H21          1.1030     1.0700     0.5000 hc         1 HJZ       0.075700
     39 H22          3.1060     0.3010     1.6600 hc         1 HJZ       0.044950
     40 H22A         4.1400     1.2350     0.5900 hc         1 HJZ       0.044950
     41 H23          2.0560     2.3680     2.5150 hc         1 HJZ       0.034700
     42 H23A         3.7970     2.4790     2.6800 hc         1 HJZ       0.034700
     43 H24          3.9380     3.8160     0.6140 hc         1 HJZ       0.034700
     44 H25          0.9020     3.6350     0.5550 hc         1 HJZ       0.034700
     45 H25A         1.8940     4.5760    -0.5440 hc         1 HJZ       0.034700
     46 H26          2.9530     2.5320    -1.4240 hc         1 HJZ       0.044950
     47 H26A         1.2110     2.4020    -1.5560 hc         1 HJZ       0.044950
     48 H27          3.5980     5.0230     2.7650 hc         1 HJZ       0.024700
     49 H27A         2.8110     5.8810     1.4420 hc         1 HJZ       0.024700
     50 H27B         1.8510     4.9160     2.5600 hc         1 HJZ       0.024700
@<TRIPOS>BOND
     1     1     2 1   
     2     1     5 1   
     3     2     3 2   
     4     2     6 1   
     5     3     4 1   
     6     3    28 1   
     7     4     5 2   
     8     4     8 1   
     9     5     7 1   
    10     6    16 ar  
    11     6    20 ar  
    12     7     9 1   
    13     7    10 1   
    14     8    11 ar  
    15     8    15 ar  
    16    11    14 ar  
    17    11    21 1   
    18    12    13 ar  
    19    12    14 ar  
    20    12    29 1   
    21    13    15 ar  
    22    13    30 1   
    23    14    31 1   
    24    15    32 1   
    25    16    19 ar  
    26    16    33 1   
    27    17    18 ar  
    28    17    19 ar  
    29    17    34 1   
    30    18    20 ar  
    31    18    35 1   
    32    19    36 1   
    33    20    37 1   
    34    21    22 1   
    35    21    26 1   
    36    21    38 1   
    37    22    23 1   
    38    22    39 1   
    39    22    40 1   
    40    23    24 1   
    41    23    41 1   
    42    23    42 1   
    43    24    25 1   
    44    24    27 1   
    45    24    43 1   
    46    25    26 1   
    47    25    44 1   
    48    25    45 1   
    49    26    46 1   
    50    26    47 1   
    51    27    48 1   
    52    27    49 1   
    53    27    50 1   
@<TRIPOS>SUBSTRUCTURE
     1 HJZ         1 TEMP              0 ****  ****    0 ROOT
