@<TRIPOS>MOLECULE
HJZ
   50    53     1     0     0
SMALL
No Charge or Current Charge


@<TRIPOS>ATOM
      1 S1          -1.9750    -0.5200     1.5770 ss         1 HJZ       0.252000
      2 C2          -2.4550    -0.4480    -0.1100 cc         1 HJZ      -0.259000
      3 C3          -1.3880    -0.6370    -0.9520 cd         1 HJZ      -0.105000
      4 C4          -0.1570    -0.8910    -0.2750 cd         1 HJZ      -0.113000
      5 C5          -0.3210    -0.8980     1.1070 cc         1 HJZ      -0.190600
      6 C6          -3.8090    -0.1820    -0.6050 ca         1 HJZ       0.044000
      7 C7           0.6750    -1.3070     2.1340 c          1 HJZ       0.727600
      8 C8           1.1130    -0.9950    -1.0260 ca         1 HJZ       0.057000
      9 O9           1.7480    -1.7780     1.7890 o          1 HJZ      -0.700000
     10 O10          0.3530    -1.2220     3.3100 o          1 HJZ      -0.700000
     11 C11          2.2310    -0.1300    -0.8240 ca         1 HJZ      -0.035300
     12 C12          3.4320    -1.3080    -2.6120 ca         1 HJZ      -0.130000
     13 C13          2.3200    -2.1290    -2.8320 ca         1 HJZ      -0.125000
     14 C14          3.3810    -0.3090    -1.6290 ca         1 HJZ      -0.116000
     15 C15          1.1660    -1.9590    -2.0540 ca         1 HJZ      -0.098000
     16 C16         -4.9250    -0.5810     0.1600 ca         1 HJZ      -0.117000
     17 C17         -6.4360     0.3260    -1.5180 ca         1 HJZ      -0.138000
     18 C18         -5.3340     0.7350    -2.2850 ca         1 HJZ      -0.112500
     19 C19         -6.2310    -0.3310    -0.2940 ca         1 HJZ      -0.112500
     20 C20         -4.0270     0.4830    -1.8300 ca         1 HJZ      -0.117000
     21 C21          2.1760     1.0940     0.1220 c6         1 HJZ      -0.014400
     22 C22          3.4030     1.2050     1.0750 c6         1 HJZ      -0.069400
     23 C23          3.2680     2.4240     2.0220 c6         1 HJZ      -0.069400
     24 C24          3.0970     3.7440     1.2210 c6         1 HJZ      -0.064700
     25 C25          1.8910     3.6400     0.2480 c6         1 HJZ      -0.069400
     26 C26          2.0190     2.4110    -0.6870 c6         1 HJZ      -0.069400
     27 C27          2.9610     4.9680     2.1640 c3         1 HJZ      -0.083100
     28 H3          -1.4590    -0.5950    -2.0340 ha         1 HJZ       0.111000
     29 H12          4.3250    -1.4270    -3.2210 ha         1 HJZ       0.091000
     30 H13          2.3490    -2.8910    -3.6070 ha         1 HJZ       0.093000
     31 H14          4.2370     0.3510    -1.5200 ha         1 HJZ       0.096000
     32 H15          0.3070    -2.6020    -2.2330 ha         1 HJZ       0.109000
     33 H16         -4.7830    -1.0970     1.1060 ha         1 HJZ       0.116500
     34 H17         -7.4470     0.5210    -1.8690 ha         1 HJZ       0.097000
     35 H18         -5.4900     1.2500    -3.2300 ha         1 HJZ       0.099000
     36 H19         -7.0840    -0.6470     0.3020 ha         1 HJZ       0.099000
     37 H20         -3.1870     0.8220    -2.4310 ha         1 HJZ       0.116500
     38 H21          1.2920     1.0250     0.7610 hc         1 HJZ       0.075700
     39 H22          3.5020     0.2890     1.6710 hc         1 HJZ       0.044950
     40 H22A         4.3340     1.3030     0.5030 hc         1 HJZ       0.044950
     41 H23          2.4100     2.2780     2.6920 hc         1 HJZ       0.034700
     42 H23A         4.1570     2.4890     2.6640 hc         1 HJZ       0.034700
     43 H24          4.0080     3.9130     0.6290 hc         1 HJZ       0.034700
     44 H25          0.9550     3.5690     0.8200 hc         1 HJZ       0.034700
     45 H25A         1.8170     4.5540    -0.3570 hc         1 HJZ       0.034700
     46 H26          2.8780     2.5470    -1.3580 hc         1 HJZ       0.044950
     47 H26A         1.1300     2.3450    -1.3290 hc         1 HJZ       0.044950
     48 H27          3.8340     5.0590     2.8220 hc         1 HJZ       0.024700
     49 H27A         2.8800     5.9000     1.5930 hc         1 HJZ       0.024700
     50 H27B         2.0710     4.8850     2.8000 hc         1 HJZ       0.024700
@<TRIPOS>BOND
     1     1     2 1   
     2     1     5 1   
     3     2     3 2   
     4     2     6 1   
     5     3     4 1   
     6     3    28 1   
     7     4     5 2   
     8     4     8 1   
     9     5     7 1   
    10     6    16 ar  
    11     6    20 ar  
    12     7     9 1   
    13     7    10 1   
    14     8    11 ar  
    15     8    15 ar  
    16    11    14 ar  
    17    11    21 1   
    18    12    13 ar  
    19    12    14 ar  
    20    12    29 1   
    21    13    15 ar  
    22    13    30 1   
    23    14    31 1   
    24    15    32 1   
    25    16    19 ar  
    26    16    33 1   
    27    17    18 ar  
    28    17    19 ar  
    29    17    34 1   
    30    18    20 ar  
    31    18    35 1   
    32    19    36 1   
    33    20    37 1   
    34    21    22 1   
    35    21    26 1   
    36    21    38 1   
    37    22    23 1   
    38    22    39 1   
    39    22    40 1   
    40    23    24 1   
    41    23    41 1   
    42    23    42 1   
    43    24    25 1   
    44    24    27 1   
    45    24    43 1   
    46    25    26 1   
    47    25    44 1   
    48    25    45 1   
    49    26    46 1   
    50    26    47 1   
    51    27    48 1   
    52    27    49 1   
    53    27    50 1   
@<TRIPOS>SUBSTRUCTURE
     1 HJZ         1 TEMP              0 ****  ****    0 ROOT
