@<TRIPOS>MOLECULE
HK0
   62    66     1     0     0
SMALL
No Charge or Current Charge


@<TRIPOS>ATOM
      1 O6          -3.2900    -4.8510     1.0270 o          1 HK0      -0.550000
      2 C22         -3.2340    -3.6780     0.6850 c          1 HK0       0.595600
      3 C10         -1.9200    -2.9400     0.6620 ca         1 HK0      -0.162600
      4 C11         -0.7400    -3.6770     0.4100 ca         1 HK0      -0.041000
      5 C12          0.5120    -3.0410     0.3750 ca         1 HK0      -0.131000
      6 C13          0.6310    -1.6540     0.6160 cp         1 HK0      -0.014000
      7 C15          1.9600    -0.9720     0.5870 cp         1 HK0       0.046000
      8 C21          2.2910     0.0120     1.5450 ca         1 HK0      -0.154000
      9 C20          3.5320     0.6660     1.5140 ca         1 HK0      -0.009000
     10 C19          4.4750     0.3480     0.5150 ca         1 HK0      -0.215200
     11 N3           5.7820     1.0550     0.5000 no         1 HK0       0.704200
     12 O5           6.8090     0.3770     0.3710 o          1 HK0      -0.395000
     13 O4           5.7880     2.2490     0.8270 o          1 HK0      -0.395000
     14 C17          4.1650    -0.6230    -0.4600 ca         1 HK0       0.214100
     15 O3           5.0810    -0.8860    -1.4610 os         1 HK0      -0.306100
     16 C18          4.8430    -1.8560    -2.4960 c3         1 HK0       0.146900
     17 C16          2.9140    -1.2770    -0.4110 ca         1 HK0      -0.216000
     18 C14         -0.5520    -0.9330     0.8930 ca         1 HK0      -0.155000
     19 C9          -1.8070    -1.5600     0.9130 ca         1 HK0       0.306000
     20 N2          -2.8950    -0.7830     1.2410 na         1 HK0      -0.918000
     21 N4          -4.3950    -3.0510     0.2870 ns         1 HK0      -0.396100
     22 C23         -4.6420    -1.7360    -0.1710 ca         1 HK0       0.095600
     23 C8          -3.8900    -0.6230     0.2760 ca         1 HK0       0.198000
     24 C24         -5.6900    -1.5460    -1.0880 ca         1 HK0      -0.167000
     25 C25         -5.9760    -0.2680    -1.5920 ca         1 HK0      -0.061000
     26 C26         -5.2170     0.8380    -1.1780 ca         1 HK0      -0.198000
     27 C7          -4.1740     0.6700    -0.2400 ca         1 HK0       0.127100
     28 O2          -3.4070     1.7430     0.1890 os         1 HK0      -0.347100
     29 C6          -3.4150     3.0150    -0.4880 c3         1 HK0       0.170600
     30 C5          -2.3030     3.9200     0.1150 c3         1 HK0       0.165800
     31 N1          -0.9170     3.3620     0.1240 n3         1 HK0      -0.709600
     32 C2          -0.4080     2.9590    -1.2270 c6         1 HK0       0.123300
     33 C1           1.0360     2.3780    -1.1510 c6         1 HK0       0.152100
     34 C3           0.0580     4.2660     0.8070 c6         1 HK0       0.123300
     35 C4           1.4910     3.6560     0.8390 c6         1 HK0       0.152100
     36 O1           1.9230     3.3180    -0.5000 os         1 HK0      -0.438000
     37 H21         -0.7940    -4.7480     0.2250 ha         1 HK0       0.136000
     38 H22          1.4010    -3.6340     0.1740 ha         1 HK0       0.122000
     39 H32          1.5800     0.2630     2.3290 ha         1 HK0       0.133000
     40 H31          3.7590     1.4140     2.2730 ha         1 HK0       0.149000
     41 H29          4.6930    -2.8560    -2.0680 h1         1 HK0       0.050033
     42 H30          3.9590    -1.5880    -3.0880 h1         1 HK0       0.050033
     43 H28          5.7030    -1.9040    -3.1760 h1         1 HK0       0.050033
     44 H27          2.6490    -2.0180    -1.1590 ha         1 HK0       0.131000
     45 H26         -0.4960     0.1350     1.0820 ha         1 HK0       0.134000
     46 H3          -2.8290    -0.1150     2.0040 hn         1 HK0       0.476000
     47 H33         -5.2030    -3.6580     0.2960 hn         1 HK0       0.323500
     48 H36         -6.2800    -2.3960    -1.4240 ha         1 HK0       0.124000
     49 H37         -6.7850    -0.1350    -2.3080 ha         1 HK0       0.119000
     50 H40         -5.4600     1.8150    -1.5840 ha         1 HK0       0.121000
     51 H15         -3.2300     2.8820    -1.5610 h1         1 HK0       0.038200
     52 H14         -4.3860     3.5120    -0.3680 h1         1 HK0       0.038200
     53 H12         -2.3120     4.8680    -0.4400 h1         1 HK0       0.045700
     54 H13         -2.6020     4.1590     1.1440 h1         1 HK0       0.045700
     55 H6          -1.0590     2.1950    -1.6750 h1         1 HK0       0.041950
     56 H7          -0.4050     3.8230    -1.9080 h1         1 HK0       0.041950
     57 H4           1.0300     1.4350    -0.5880 h1         1 HK0       0.051200
     58 H5           1.4110     2.1700    -2.1620 h1         1 HK0       0.051200
     59 H9           0.1030     5.2380     0.2930 h1         1 HK0       0.041950
     60 H8          -0.2630     4.4630     1.8400 h1         1 HK0       0.041950
     61 H10          2.1970     4.3760     1.2750 h1         1 HK0       0.051200
     62 H11          1.4950     2.7510     1.4620 h1         1 HK0       0.051200
@<TRIPOS>BOND
     1     1     2 2   
     2     2     3 1   
     3     2    21 1   
     4     3     4 ar  
     5     3    19 ar  
     6     4     5 ar  
     7     4    37 1   
     8     5     6 ar  
     9     5    38 1   
    10     6     7 1   
    11     6    18 ar  
    12     7     8 ar  
    13     7    17 ar  
    14     8     9 ar  
    15     8    39 1   
    16     9    10 ar  
    17     9    40 1   
    18    10    11 1   
    19    10    14 ar  
    20    11    12 1   
    21    11    13 1   
    22    14    15 1   
    23    14    17 ar  
    24    15    16 1   
    25    16    41 1   
    26    16    42 1   
    27    16    43 1   
    28    17    44 1   
    29    18    19 ar  
    30    18    45 1   
    31    19    20 1   
    32    20    23 1   
    33    20    46 1   
    34    21    22 1   
    35    21    47 1   
    36    22    23 ar  
    37    22    24 ar  
    38    23    27 ar  
    39    24    25 ar  
    40    24    48 1   
    41    25    26 ar  
    42    25    49 1   
    43    26    27 ar  
    44    26    50 1   
    45    27    28 1   
    46    28    29 1   
    47    29    30 1   
    48    29    51 1   
    49    29    52 1   
    50    30    31 1   
    51    30    53 1   
    52    30    54 1   
    53    31    32 1   
    54    31    34 1   
    55    32    33 1   
    56    32    55 1   
    57    32    56 1   
    58    33    36 1   
    59    33    57 1   
    60    33    58 1   
    61    34    35 1   
    62    34    59 1   
    63    34    60 1   
    64    35    36 1   
    65    35    61 1   
    66    35    62 1   
@<TRIPOS>SUBSTRUCTURE
     1 HK0         1 TEMP              0 ****  ****    0 ROOT
