@<TRIPOS>MOLECULE
HK0
   62    66     1     0     0
SMALL
bcc


@<TRIPOS>ATOM
      1 O6          -3.2000    -4.6950     1.2180 o          1 HK0      -0.625500
      2 C22         -3.1950    -3.5290     0.8570 c          1 HK0       0.738100
      3 C10         -1.9060    -2.7950     0.7170 ca         1 HK0      -0.162600
      4 C11         -0.7720    -3.5470     0.4090 ca         1 HK0      -0.059000
      5 C12          0.4830    -2.9730     0.3690 ca         1 HK0      -0.149000
      6 C13          0.6380    -1.6210     0.6810 cp         1 HK0      -0.014000
      7 C15          1.9620    -0.9740     0.6360 cp         1 HK0       0.046000
      8 C21          2.3430    -0.0700     1.6260 ca         1 HK0      -0.172000
      9 C20          3.5560     0.5770     1.5300 ca         1 HK0      -0.027000
     10 C19          4.4110     0.3110     0.4700 ca         1 HK0      -0.215200
     11 N3           5.6780     1.0080     0.4450 no         1 HK0       0.324200
     12 O5           6.6330     0.4600    -0.0500 o          1 HK0      -0.205000
     13 O4           5.7200     2.1100     0.9470 o          1 HK0      -0.205000
     14 C17          4.0550    -0.6040    -0.5380 ca         1 HK0       0.214100
     15 O3           4.8810    -0.7850    -1.5640 os         1 HK0      -0.282900
     16 C18          4.4940    -1.6540    -2.6180 c3         1 HK0       0.123700
     17 C16          2.8170    -1.2340    -0.4290 ca         1 HK0      -0.234000
     18 C14         -0.4850    -0.8650     0.9930 ca         1 HK0      -0.173000
     19 C9          -1.7560    -1.4340     1.0000 ca         1 HK0       0.167600
     20 N2          -2.8680    -0.6430     1.2980 na         1 HK0      -0.586000
     21 N4          -4.3620    -2.8970     0.5740 ns         1 HK0      -0.463100
     22 C23         -4.5680    -1.6730    -0.0790 ca         1 HK0       0.095600
     23 C8          -3.8450    -0.5510     0.2910 ca         1 HK0       0.059600
     24 C24         -5.5460    -1.5820    -1.0700 ca         1 HK0      -0.185000
     25 C25         -5.7880    -0.3670    -1.6810 ca         1 HK0      -0.079000
     26 C26         -5.0560     0.7660    -1.3380 ca         1 HK0      -0.216000
     27 C7          -4.0750     0.6710    -0.3600 ca         1 HK0       0.127100
     28 O2          -3.3050     1.6870     0.0640 os         1 HK0      -0.323900
     29 C6          -3.2620     2.8880    -0.6820 c3         1 HK0       0.147400
     30 C5          -2.2400     3.8050    -0.0470 c3         1 HK0       0.165800
     31 N1          -0.9170     3.2340     0.0830 n3         1 HK0      -0.709600
     32 C2          -0.2850     2.9520    -1.1930 c6         1 HK0       0.123300
     33 C1           1.0980     2.3660    -0.9750 c6         1 HK0       0.128900
     34 C3          -0.0630     4.1000     0.8750 c6         1 HK0       0.123300
     35 C4           1.3060     3.4730     1.0490 c6         1 HK0       0.128900
     36 O1           1.9130     3.2060    -0.1930 os         1 HK0      -0.391600
     37 H21         -0.8780    -4.6040     0.2040 ha         1 HK0       0.154000
     38 H22          1.3450    -3.5810     0.1290 ha         1 HK0       0.140000
     39 H32          1.6990     0.1200     2.4730 ha         1 HK0       0.151000
     40 H31          3.8510     1.2790     2.2960 ha         1 HK0       0.167000
     41 H29          4.3530    -2.6780    -2.2650 h1         1 HK0       0.050033
     42 H30          3.5800    -1.3130    -3.1090 h1         1 HK0       0.050033
     43 H28          5.3100    -1.6370    -3.3350 h1         1 HK0       0.050033
     44 H27          2.4880    -1.9110    -1.2050 ha         1 HK0       0.149000
     45 H26         -0.3910     0.2010     1.1740 ha         1 HK0       0.152000
     46 H3          -2.6000     0.2650     1.6500 hn         1 HK0       0.420800
     47 H33         -5.1730    -3.4980     0.6350 hn         1 HK0       0.323500
     48 H36         -6.1100    -2.4620    -1.3520 ha         1 HK0       0.142000
     49 H37         -6.5500    -0.2940    -2.4450 ha         1 HK0       0.137000
     50 H40         -5.2530     1.7030    -1.8410 ha         1 HK0       0.139000
     51 H15         -3.0260     2.6720    -1.7300 h1         1 HK0       0.038200
     52 H14         -4.2330     3.3960    -0.6680 h1         1 HK0       0.038200
     53 H12         -2.2380     4.7360    -0.6390 h1         1 HK0       0.045700
     54 H13         -2.5900     4.0770     0.9530 h1         1 HK0       0.045700
     55 H6          -0.8740     2.2210    -1.7520 h1         1 HK0       0.041950
     56 H7          -0.2130     3.8580    -1.8210 h1         1 HK0       0.041950
     57 H4           0.9980     1.3810    -0.4990 h1         1 HK0       0.051200
     58 H5           1.5980     2.2220    -1.9340 h1         1 HK0       0.051200
     59 H9           0.0490     5.0980     0.4150 h1         1 HK0       0.041950
     60 H8          -0.5130     4.2510     1.8590 h1         1 HK0       0.041950
     61 H10          1.9620     4.1520     1.5970 h1         1 HK0       0.051200
     62 H11          1.2120     2.5500     1.6380 h1         1 HK0       0.051200
@<TRIPOS>BOND
     1     1     2 2   
     2     2     3 1   
     3     2    21 1   
     4     3     4 ar  
     5     3    19 ar  
     6     4     5 ar  
     7     4    37 1   
     8     5     6 ar  
     9     5    38 1   
    10     6     7 1   
    11     6    18 ar  
    12     7     8 ar  
    13     7    17 ar  
    14     8     9 ar  
    15     8    39 1   
    16     9    10 ar  
    17     9    40 1   
    18    10    11 1   
    19    10    14 ar  
    20    11    12 1   
    21    11    13 1   
    22    14    15 1   
    23    14    17 ar  
    24    15    16 1   
    25    16    41 1   
    26    16    42 1   
    27    16    43 1   
    28    17    44 1   
    29    18    19 ar  
    30    18    45 1   
    31    19    20 1   
    32    20    23 1   
    33    20    46 1   
    34    21    22 1   
    35    21    47 1   
    36    22    23 ar  
    37    22    24 ar  
    38    23    27 ar  
    39    24    25 ar  
    40    24    48 1   
    41    25    26 ar  
    42    25    49 1   
    43    26    27 ar  
    44    26    50 1   
    45    27    28 1   
    46    28    29 1   
    47    29    30 1   
    48    29    51 1   
    49    29    52 1   
    50    30    31 1   
    51    30    53 1   
    52    30    54 1   
    53    31    32 1   
    54    31    34 1   
    55    32    33 1   
    56    32    55 1   
    57    32    56 1   
    58    33    36 1   
    59    33    57 1   
    60    33    58 1   
    61    34    35 1   
    62    34    59 1   
    63    34    60 1   
    64    35    36 1   
    65    35    61 1   
    66    35    62 1   
@<TRIPOS>SUBSTRUCTURE
     1 HK0         1 TEMP              0 ****  ****    0 ROOT
