@<TRIPOS>MOLECULE
HK1
   39    42     1     0     0
SMALL
No Charge or Current Charge


@<TRIPOS>ATOM
      1 O1          -6.9160     1.4180     0.4230 oh         1 HK1      -0.528100
      2 C1          -5.7000     0.8370     0.2240 ca         1 HK1       0.148100
      3 C6          -5.4420    -0.4540     0.7090 ca         1 HK1      -0.174500
      4 C5          -4.1830    -1.0460     0.4970 ca         1 HK1      -0.056500
      5 C4          -3.1690    -0.3490    -0.1940 ca         1 HK1      -0.056000
      6 C3          -3.4450     0.9440    -0.6850 ca         1 HK1      -0.056500
      7 C2          -4.7040     1.5340    -0.4740 ca         1 HK1      -0.174500
      8 C7          -1.8670    -0.9860    -0.4070 cc         1 HK1      -0.053000
      9 C9          -0.6460    -0.3860    -0.3920 cd         1 HK1      -0.206300
     10 C10         -0.1990     1.0400    -0.1510 c5         1 HK1       0.059200
     11 C11          1.3130     0.6480    -0.0930 ca         1 HK1      -0.081300
     12 C18          1.5760    -0.7210    -0.2850 ca         1 HK1      -0.119500
     13 C8           0.3010    -1.3560    -0.4610 cd         1 HK1       0.297500
     14 N2          -0.1400    -2.5930    -0.5120 nc         1 HK1      -0.484800
     15 N1          -1.5290    -2.3530    -0.4830 na         1 HK1      -0.014200
     16 C17          2.8640    -1.2650    -0.2360 ca         1 HK1      -0.133000
     17 C15          3.9490    -0.3830    -0.0100 ca         1 HK1       0.105100
     18 O3           5.2560    -0.8410     0.0450 os         1 HK1      -0.322100
     19 C16          5.5950    -2.2290    -0.1270 c3         1 HK1       0.144900
     20 C13          3.7090     1.0100     0.1720 ca         1 HK1       0.115100
     21 C12          2.3850     1.5230     0.1330 ca         1 HK1      -0.161000
     22 O2           4.7980     1.8390     0.3930 os         1 HK1      -0.320100
     23 C14          4.6630     3.2570     0.5880 c3         1 HK1       0.145900
     24 H2          -7.4820     0.7910     0.9230 ho         1 HK1       0.467000
     25 H6          -6.2080    -1.0050     1.2490 ha         1 HK1       0.124000
     26 H5          -3.9940    -2.0440     0.8840 ha         1 HK1       0.114000
     27 H4          -2.6960     1.4900    -1.2500 ha         1 HK1       0.114000
     28 H3          -4.9070     2.5300    -0.8580 ha         1 HK1       0.124000
     29 H8          -0.4230     1.7230    -0.9780 hc         1 HK1       0.063200
     30 H7          -0.5730     1.4660     0.7870 hc         1 HK1       0.063200
     31 H1          -2.1930    -3.1250    -0.4990 hn         1 HK1       0.369000
     32 H10          3.0000    -2.3340    -0.3720 ha         1 HK1       0.132000
     33 H161         5.1160    -2.8460     0.6440 h1         1 HK1       0.039700
     34 H162         5.2770    -2.5890    -1.1140 h1         1 HK1       0.039700
     35 H163         6.6800    -2.3670    -0.0480 h1         1 HK1       0.039700
     36 H9           2.1770     2.5790     0.2770 ha         1 HK1       0.120000
     37 H143         5.6490     3.7140     0.7430 h1         1 HK1       0.039033
     38 H141         4.2030     3.7300    -0.2880 h1         1 HK1       0.039033
     39 H142         4.0470     3.4730     1.4710 h1         1 HK1       0.039033
@<TRIPOS>BOND
     1     1     2 1   
     2     1    24 1   
     3     2     3 ar  
     4     2     7 ar  
     5     3     4 ar  
     6     3    25 1   
     7     4     5 ar  
     8     4    26 1   
     9     5     6 ar  
    10     5     8 1   
    11     6     7 ar  
    12     6    27 1   
    13     7    28 1   
    14     8     9 2   
    15     8    15 1   
    16     9    10 1   
    17     9    13 1   
    18    10    11 1   
    19    10    29 1   
    20    10    30 1   
    21    11    12 ar  
    22    11    21 ar  
    23    12    13 1   
    24    12    16 ar  
    25    13    14 2   
    26    14    15 1   
    27    15    31 1   
    28    16    17 ar  
    29    16    32 1   
    30    17    18 1   
    31    17    20 ar  
    32    18    19 1   
    33    19    33 1   
    34    19    34 1   
    35    19    35 1   
    36    20    21 ar  
    37    20    22 1   
    38    21    36 1   
    39    22    23 1   
    40    23    37 1   
    41    23    38 1   
    42    23    39 1   
@<TRIPOS>SUBSTRUCTURE
     1 HK1         1 TEMP              0 ****  ****    0 ROOT
