@<TRIPOS>MOLECULE
HK1
   39    42     1     0     0
SMALL
abcg2


@<TRIPOS>ATOM
      1 O1          -7.1170     1.1880     0.1050 oh         1 HK1      -0.528100
      2 C1          -5.8840     0.6530     0.0660 ca         1 HK1       0.148100
      3 C6          -5.6540    -0.7200     0.1230 ca         1 HK1      -0.174500
      4 C5          -4.3610    -1.2120     0.0790 ca         1 HK1      -0.056500
      5 C4          -3.2630    -0.3580    -0.0270 ca         1 HK1      -0.056000
      6 C3          -3.5120     1.0160    -0.0810 ca         1 HK1      -0.056500
      7 C2          -4.7980     1.5200    -0.0350 ca         1 HK1      -0.174500
      8 C7          -1.8910    -0.8470    -0.0760 cc         1 HK1      -0.053000
      9 C9          -0.6790    -0.1930    -0.0290 cd         1 HK1      -0.206300
     10 C10         -0.0200     1.1430     0.0880 c5         1 HK1       0.059200
     11 C11          1.4450     0.7460     0.0570 ca         1 HK1      -0.081300
     12 C18          1.6120    -0.6330    -0.0580 ca         1 HK1      -0.119500
     13 C8           0.2800    -1.2120    -0.1100 cd         1 HK1       0.297500
     14 N2          -0.2520    -2.4130    -0.2030 nc         1 HK1      -0.484800
     15 N1          -1.5660    -2.1650    -0.1800 na         1 HK1      -0.014200
     16 C17          2.8810    -1.2050    -0.1050 ca         1 HK1      -0.133000
     17 C15          3.9910    -0.3780    -0.0410 ca         1 HK1       0.105100
     18 O3           5.2680    -0.8040    -0.0780 os         1 HK1      -0.322100
     19 C16          5.5030    -2.1930    -0.1810 c3         1 HK1       0.144900
     20 C13          3.8270     1.0230     0.0720 ca         1 HK1       0.115100
     21 C12          2.5550     1.5770     0.1210 ca         1 HK1      -0.161000
     22 O2           4.9720     1.7290     0.1260 os         1 HK1      -0.320100
     23 C14          4.8850     3.1360     0.2160 c3         1 HK1       0.145900
     24 H2          -7.7840     0.4950     0.1730 ho         1 HK1       0.467000
     25 H6          -6.4840    -1.4110     0.2050 ha         1 HK1       0.124000
     26 H5          -4.2310    -2.2850     0.1360 ha         1 HK1       0.114000
     27 H4          -2.6890     1.7140    -0.1640 ha         1 HK1       0.114000
     28 H3          -4.9630     2.5900    -0.0790 ha         1 HK1       0.124000
     29 H8          -0.2670     1.8220    -0.7340 hc         1 HK1       0.063200
     30 H7          -0.2780     1.6660     1.0140 hc         1 HK1       0.063200
     31 H1          -2.2030    -2.9400    -0.2660 hn         1 HK1       0.369000
     32 H10          2.9840    -2.2780    -0.1930 ha         1 HK1       0.132000
     33 H161         5.0980    -2.7420     0.6740 h1         1 HK1       0.039700
     34 H162         5.0830    -2.6130    -1.0990 h1         1 HK1       0.039700
     35 H163         6.5830    -2.3230    -0.1990 h1         1 HK1       0.039700
     36 H9           2.4210     2.6480     0.2070 ha         1 HK1       0.120000
     37 H143         5.9070     3.5080     0.2330 h1         1 HK1       0.039033
     38 H141         4.3660     3.5700    -0.6430 h1         1 HK1       0.039033
     39 H142         4.3780     3.4570     1.1300 h1         1 HK1       0.039033
@<TRIPOS>BOND
     1     1     2 1   
     2     1    24 1   
     3     2     3 ar  
     4     2     7 ar  
     5     3     4 ar  
     6     3    25 1   
     7     4     5 ar  
     8     4    26 1   
     9     5     6 ar  
    10     5     8 1   
    11     6     7 ar  
    12     6    27 1   
    13     7    28 1   
    14     8     9 2   
    15     8    15 1   
    16     9    10 1   
    17     9    13 1   
    18    10    11 1   
    19    10    29 1   
    20    10    30 1   
    21    11    12 ar  
    22    11    21 ar  
    23    12    13 1   
    24    12    16 ar  
    25    13    14 2   
    26    14    15 1   
    27    15    31 1   
    28    16    17 ar  
    29    16    32 1   
    30    17    18 1   
    31    17    20 ar  
    32    18    19 1   
    33    19    33 1   
    34    19    34 1   
    35    19    35 1   
    36    20    21 ar  
    37    20    22 1   
    38    21    36 1   
    39    22    23 1   
    40    23    37 1   
    41    23    38 1   
    42    23    39 1   
@<TRIPOS>SUBSTRUCTURE
     1 HK1         1 TEMP              0 ****  ****    0 ROOT
