@<TRIPOS>MOLECULE
HK3
   47    51     1     0     0
SMALL
abcg2


@<TRIPOS>ATOM
      1 O1          -9.4980     1.0390    -0.0890 oh         1 HK3      -0.531100
      2 C1          -8.1820     0.7690    -0.0300 ca         1 HK3       0.147100
      3 C6          -7.7330    -0.4150    -0.6130 ca         1 HK3      -0.178500
      4 C5          -6.3890    -0.7390    -0.5750 ca         1 HK3      -0.056000
      5 C4          -5.4510     0.0990     0.0350 cp         1 HK3      -0.080000
      6 C3          -5.9200     1.2810     0.6090 ca         1 HK3      -0.056000
      7 C2          -7.2630     1.6170     0.5840 ca         1 HK3      -0.178500
      8 C7          -4.0230    -0.2550     0.0680 cp         1 HK3      -0.001000
      9 C12         -3.0330     0.7280     0.0030 ca         1 HK3      -0.115500
     10 C11         -1.6910     0.3910     0.0300 ca         1 HK3      -0.072500
     11 C10         -1.2890    -0.9410     0.1210 ca         1 HK3      -0.146500
     12 C9          -2.2760    -1.9290     0.1900 ca         1 HK3      -0.072500
     13 C8          -3.6140    -1.5890     0.1650 ca         1 HK3      -0.115500
     14 C13          0.1210    -1.2940     0.1440 cc         1 HK3       0.405500
     15 C15          1.2800    -0.4260     0.0720 cc         1 HK3      -0.207000
     16 C16          1.7920     0.8240    -0.0310 cd         1 HK3       0.018800
     17 C17          3.2590     0.7150    -0.0320 ca         1 HK3      -0.121800
     18 C24          3.6280    -0.6340     0.0720 ca         1 HK3      -0.110500
     19 C14          2.3630    -1.3730     0.1390 cc         1 HK3       0.315500
     20 N2           1.9380    -2.5800     0.2340 nd         1 HK3      -0.281000
     21 N1           0.5320    -2.5280     0.2370 nd         1 HK3      -0.357000
     22 C23          4.9510    -1.0090     0.0920 ca         1 HK3      -0.125000
     23 C21          5.9310    -0.0120     0.0080 ca         1 HK3       0.129100
     24 O3           7.2470    -0.2490     0.0200 os         1 HK3      -0.317100
     25 C22          7.6950    -1.5910     0.0930 c3         1 HK3       0.142900
     26 C19          5.5640     1.3460    -0.0950 ca         1 HK3       0.101100
     27 C18          4.2180     1.7090    -0.1160 ca         1 HK3      -0.118000
     28 O2           6.5860     2.2130    -0.1650 os         1 HK3      -0.318100
     29 C20          6.2910     3.5940    -0.2480 c3         1 HK3       0.144900
     30 H1          -9.6910     1.8790     0.3430 ho         1 HK3       0.466000
     31 H2          -8.4380    -1.0770    -1.1010 ha         1 HK3       0.122500
     32 H3          -6.0680    -1.6550    -1.0540 ha         1 HK3       0.116500
     33 H4          -5.2310     1.9500     1.1110 ha         1 HK3       0.116500
     34 H5          -7.5940     2.5380     1.0490 ha         1 HK3       0.122500
     35 H6          -3.3080     1.7710    -0.0920 ha         1 HK3       0.117000
     36 H7          -0.9560     1.1830    -0.0290 ha         1 HK3       0.124000
     37 H8          -1.9900    -2.9690     0.2720 ha         1 HK3       0.124000
     38 H9          -4.3520    -2.3760     0.2440 ha         1 HK3       0.117000
     39 H10          1.2640     1.7650    -0.1030 ha         1 HK3       0.201000
     40 H11          5.2220    -2.0530     0.1740 ha         1 HK3       0.141000
     41 H222         7.3510    -2.1790    -0.7600 h1         1 HK3       0.046033
     42 H223         8.7810    -1.5520     0.0800 h1         1 HK3       0.046033
     43 H221         7.3700    -2.0770     1.0160 h1         1 HK3       0.046033
     44 H12          3.9170     2.7450    -0.1960 ha         1 HK3       0.126000
     45 H203         7.2470     4.1110    -0.2740 h1         1 HK3       0.042033
     46 H201         5.7340     3.8380    -1.1560 h1         1 HK3       0.042033
     47 H202         5.7250     3.9420     0.6200 h1         1 HK3       0.042033
@<TRIPOS>BOND
     1     1     2 1   
     2     1    30 1   
     3     2     3 ar  
     4     2     7 ar  
     5     3     4 ar  
     6     3    31 1   
     7     4     5 ar  
     8     4    32 1   
     9     5     6 ar  
    10     5     8 1   
    11     6     7 ar  
    12     6    33 1   
    13     7    34 1   
    14     8     9 ar  
    15     8    13 ar  
    16     9    10 ar  
    17     9    35 1   
    18    10    11 ar  
    19    10    36 1   
    20    11    12 ar  
    21    11    14 1   
    22    12    13 ar  
    23    12    37 1   
    24    13    38 1   
    25    14    15 1   
    26    14    21 2   
    27    15    16 2   
    28    15    19 1   
    29    16    17 1   
    30    16    39 1   
    31    17    18 ar  
    32    17    27 ar  
    33    18    19 1   
    34    18    22 ar  
    35    19    20 2   
    36    20    21 1   
    37    22    23 ar  
    38    22    40 1   
    39    23    24 1   
    40    23    26 ar  
    41    24    25 1   
    42    25    41 1   
    43    25    42 1   
    44    25    43 1   
    45    26    27 ar  
    46    26    28 1   
    47    27    44 1   
    48    28    29 1   
    49    29    45 1   
    50    29    46 1   
    51    29    47 1   
@<TRIPOS>SUBSTRUCTURE
     1 HK3         1 TEMP              0 ****  ****    0 ROOT
