@<TRIPOS>MOLECULE
HK3
   47    51     1     0     0
SMALL
No Charge or Current Charge


@<TRIPOS>ATOM
      1 O1          -9.5550     1.1120    -0.0470 oh         1 HK3      -0.531100
      2 C1          -8.2320     0.7900    -0.0200 ca         1 HK3       0.147100
      3 C6          -7.7940    -0.3970    -0.6210 ca         1 HK3      -0.178500
      4 C5          -6.4310    -0.7400    -0.5980 ca         1 HK3      -0.056000
      5 C4          -5.4760     0.1030     0.0270 cp         1 HK3      -0.080000
      6 C3          -5.9440     1.3000     0.6290 ca         1 HK3      -0.056000
      7 C2          -7.3080     1.6400     0.6060 ca         1 HK3      -0.178500
      8 C7          -4.0230    -0.2600     0.0520 cp         1 HK3      -0.001000
      9 C12         -3.0170     0.7310    -0.0310 ca         1 HK3      -0.115500
     10 C11         -1.6520     0.3940    -0.0080 ca         1 HK3      -0.072500
     11 C10         -1.2380    -0.9510     0.1010 ca         1 HK3      -0.146500
     12 C9          -2.2400    -1.9460     0.1840 ca         1 HK3      -0.072500
     13 C8          -3.6030    -1.6060     0.1590 ca         1 HK3      -0.115500
     14 C13          0.1890    -1.3380     0.1270 cc         1 HK3       0.405500
     15 C15          1.3290    -0.5230     0.0630 cc         1 HK3      -0.207000
     16 C16          1.7530     0.7860    -0.0350 cd         1 HK3       0.018800
     17 C17          3.2290     0.7070    -0.0330 ca         1 HK3      -0.121800
     18 C24          3.6090    -0.6320     0.0660 ca         1 HK3      -0.110500
     19 C14          2.3780    -1.3870     0.1250 cc         1 HK3       0.315500
     20 N2           2.0270    -2.6520     0.2210 nd         1 HK3      -0.281000
     21 N1           0.6030    -2.6190     0.2220 nd         1 HK3      -0.357000
     22 C23          4.9500    -1.0270     0.0920 ca         1 HK3      -0.125000
     23 C21          5.9400    -0.0130     0.0150 ca         1 HK3       0.129100
     24 O3           7.2910    -0.3190     0.0340 os         1 HK3      -0.317100
     25 C22          7.7760    -1.6700     0.1340 c3         1 HK3       0.142900
     26 C19          5.5590     1.3600    -0.0870 ca         1 HK3       0.101100
     27 C18          4.1850     1.7260    -0.1110 ca         1 HK3      -0.118000
     28 O2           6.5610     2.3150    -0.1600 os         1 HK3      -0.318100
     29 C20          6.2810     3.7230    -0.2640 c3         1 HK3       0.144900
     30 H1          -9.6760     1.9680     0.4170 ho         1 HK3       0.466000
     31 H2          -8.5100    -1.0540    -1.1090 ha         1 HK3       0.122500
     32 H3          -6.1110    -1.6590    -1.0830 ha         1 HK3       0.116500
     33 H4          -5.2450     1.9650     1.1310 ha         1 HK3       0.116500
     34 H5          -7.6380     2.5620     1.0780 ha         1 HK3       0.122500
     35 H6          -3.2940     1.7770    -0.1290 ha         1 HK3       0.117000
     36 H7          -0.9310     1.1970    -0.0800 ha         1 HK3       0.124000
     37 H8          -1.9710    -2.9970     0.2710 ha         1 HK3       0.124000
     38 H9          -4.3410    -2.3990     0.2400 ha         1 HK3       0.117000
     39 H10          1.1550     1.6890    -0.1000 ha         1 HK3       0.201000
     40 H11          5.1990    -2.0820     0.1700 ha         1 HK3       0.141000
     41 H222         7.4300    -2.2720    -0.7150 h1         1 HK3       0.046033
     42 H223         8.8730    -1.6800     0.1320 h1         1 HK3       0.046033
     43 H221         7.4340    -2.1400     1.0640 h1         1 HK3       0.046033
     44 H12          3.8610     2.7600    -0.1870 ha         1 HK3       0.126000
     45 H203         7.2170     4.2930    -0.3090 h1         1 HK3       0.042033
     46 H201         5.7080     3.9400    -1.1740 h1         1 HK3       0.042033
     47 H202         5.7110     4.0730     0.6060 h1         1 HK3       0.042033
@<TRIPOS>BOND
     1     1     2 1   
     2     1    30 1   
     3     2     3 ar  
     4     2     7 ar  
     5     3     4 ar  
     6     3    31 1   
     7     4     5 ar  
     8     4    32 1   
     9     5     6 ar  
    10     5     8 1   
    11     6     7 ar  
    12     6    33 1   
    13     7    34 1   
    14     8     9 ar  
    15     8    13 ar  
    16     9    10 ar  
    17     9    35 1   
    18    10    11 ar  
    19    10    36 1   
    20    11    12 ar  
    21    11    14 1   
    22    12    13 ar  
    23    12    37 1   
    24    13    38 1   
    25    14    15 1   
    26    14    21 2   
    27    15    16 2   
    28    15    19 1   
    29    16    17 1   
    30    16    39 1   
    31    17    18 ar  
    32    17    27 ar  
    33    18    19 1   
    34    18    22 ar  
    35    19    20 2   
    36    20    21 1   
    37    22    23 ar  
    38    22    40 1   
    39    23    24 1   
    40    23    26 ar  
    41    24    25 1   
    42    25    41 1   
    43    25    42 1   
    44    25    43 1   
    45    26    27 ar  
    46    26    28 1   
    47    27    44 1   
    48    28    29 1   
    49    29    45 1   
    50    29    46 1   
    51    29    47 1   
@<TRIPOS>SUBSTRUCTURE
     1 HK3         1 TEMP              0 ****  ****    0 ROOT
