@<TRIPOS>MOLECULE
HK4
   45    48     1     0     0
SMALL
No Charge or Current Charge


@<TRIPOS>ATOM
      1 O1          -8.1890    -0.2840     0.0570 oh         1 HK4      -0.529100
      2 C1          -6.8680     0.0610     0.0490 ca         1 HK4       0.136100
      3 C6          -5.8830    -0.9490     0.0540 ca         1 HK4       0.044100
      4 O2          -6.3020    -2.2690     0.0670 os         1 HK4      -0.367100
      5 C7          -5.3740    -3.3710     0.0730 c3         1 HK4       0.156900
      6 C5          -4.5170    -0.5870     0.0450 ca         1 HK4      -0.129000
      7 C4          -4.1490     0.7730     0.0310 ca         1 HK4       0.011000
      8 C3          -5.1400     1.7720     0.0270 ca         1 HK4      -0.076000
      9 C2          -6.4990     1.4150     0.0350 ca         1 HK4      -0.130000
     10 C8          -2.7620     1.1390     0.0220 cg         1 HK4      -0.064000
     11 C9          -1.5780     1.4350     0.0150 ch         1 HK4      -0.112000
     12 C10         -0.1860     1.6960     0.0060 cd         1 HK4      -0.002000
     13 C12          0.8720     0.8540    -0.0040 cc         1 HK4      -0.183300
     14 C13          1.1470    -0.6490    -0.0100 c5         1 HK4       0.059200
     15 C14          2.6910    -0.5480    -0.0200 ca         1 HK4      -0.082300
     16 C21          3.1650     0.7590    -0.0200 ca         1 HK4      -0.119500
     17 C11          2.0170     1.6060    -0.0100 cc         1 HK4       0.291500
     18 N2           1.8410     2.9070    -0.0050 nd         1 HK4      -0.477800
     19 N1           0.4260     2.9710     0.0050 na         1 HK4      -0.003200
     20 C20          4.5290     1.0760    -0.0280 ca         1 HK4      -0.132000
     21 C18          5.4590     0.0080    -0.0380 ca         1 HK4       0.105100
     22 O4           6.8260     0.2370    -0.0470 os         1 HK4      -0.322100
     23 C19          7.3860     1.5620    -0.0470 c3         1 HK4       0.144900
     24 C16          4.9950    -1.3390    -0.0380 ca         1 HK4       0.116100
     25 C15          3.6020    -1.6150    -0.0300 ca         1 HK4      -0.161000
     26 O3           5.9340    -2.3580    -0.0480 os         1 HK4      -0.320100
     27 C17          5.5650    -3.7480    -0.0490 c3         1 HK4       0.145900
     28 H2          -8.2180    -1.2670     0.0660 ho         1 HK4       0.485000
     29 H73         -4.7390    -3.3510    -0.8220 h1         1 HK4       0.043700
     30 H72         -4.7320    -3.3360     0.9620 h1         1 HK4       0.043700
     31 H71         -5.9160    -4.3250     0.0830 h1         1 HK4       0.043700
     32 H5          -3.7360    -1.3420     0.0480 ha         1 HK4       0.125000
     33 H4          -4.8580     2.8230     0.0160 ha         1 HK4       0.124000
     34 H3          -7.2650     2.1870     0.0320 ha         1 HK4       0.135000
     35 H6           0.7550    -1.1490     0.8830 hc         1 HK4       0.066700
     36 H7           0.7430    -1.1440    -0.9010 hc         1 HK4       0.066700
     37 H1          -0.0650     3.8630     0.0110 hn         1 HK4       0.377000
     38 H9           4.8370     2.1180    -0.0280 ha         1 HK4       0.132000
     39 H191         7.0660     2.1210    -0.9350 h1         1 HK4       0.040033
     40 H192         7.0780     2.1160     0.8500 h1         1 HK4       0.040033
     41 H193         8.4820     1.5110    -0.0540 h1         1 HK4       0.040033
     42 H8           3.2190    -2.6320    -0.0300 ha         1 HK4       0.120000
     43 H172         4.9830    -3.9980     0.8460 h1         1 HK4       0.039033
     44 H171         4.9710    -3.9930    -0.9380 h1         1 HK4       0.039033
     45 H173         6.4630    -4.3780    -0.0570 h1         1 HK4       0.039033
@<TRIPOS>BOND
     1     1     2 1   
     2     1    28 1   
     3     2     3 ar  
     4     2     9 ar  
     5     3     4 1   
     6     3     6 ar  
     7     4     5 1   
     8     5    29 1   
     9     5    30 1   
    10     5    31 1   
    11     6     7 ar  
    12     6    32 1   
    13     7     8 ar  
    14     7    10 1   
    15     8     9 ar  
    16     8    33 1   
    17     9    34 1   
    18    10    11 3   
    19    11    12 1   
    20    12    13 2   
    21    12    19 1   
    22    13    14 1   
    23    13    17 1   
    24    14    15 1   
    25    14    35 1   
    26    14    36 1   
    27    15    16 ar  
    28    15    25 ar  
    29    16    17 1   
    30    16    20 ar  
    31    17    18 2   
    32    18    19 1   
    33    19    37 1   
    34    20    21 ar  
    35    20    38 1   
    36    21    22 1   
    37    21    24 ar  
    38    22    23 1   
    39    23    39 1   
    40    23    40 1   
    41    23    41 1   
    42    24    25 ar  
    43    24    26 1   
    44    25    42 1   
    45    26    27 1   
    46    27    43 1   
    47    27    44 1   
    48    27    45 1   
@<TRIPOS>SUBSTRUCTURE
     1 HK4         1 TEMP              0 ****  ****    0 ROOT
