@<TRIPOS>MOLECULE
HK4
   45    48     1     0     0
SMALL
bcc


@<TRIPOS>ATOM
      1 O1          -8.2000    -0.1630     0.0600 oh         1 HK4      -0.490100
      2 C1          -6.8870     0.1220     0.0510 ca         1 HK4       0.136100
      3 C6          -5.9200    -0.9020     0.0570 ca         1 HK4       0.044100
      4 O2          -6.4250    -2.1510     0.0740 os         1 HK4      -0.343900
      5 C7          -5.5290    -3.2460     0.0710 c3         1 HK4       0.133700
      6 C5          -4.5770    -0.5800     0.0470 ca         1 HK4      -0.147000
      7 C4          -4.1710     0.7630     0.0300 ca         1 HK4       0.011000
      8 C3          -5.1320     1.7720     0.0240 ca         1 HK4      -0.094000
      9 C2          -6.4800     1.4460     0.0350 ca         1 HK4      -0.148000
     10 C8          -2.7850     1.0700     0.0180 cg         1 HK4      -0.064000
     11 C9          -1.6000     1.3040     0.0160 ch         1 HK4      -0.112000
     12 C10         -0.2110     1.5350     0.0070 cd         1 HK4       0.048700
     13 C12          0.8630     0.6730    -0.0030 cc         1 HK4      -0.248600
     14 C13          1.2710    -0.7620    -0.0080 c5         1 HK4       0.059200
     15 C14          2.7840    -0.6270    -0.0190 ca         1 HK4      -0.082300
     16 C21          3.1920     0.7060    -0.0220 ca         1 HK4      -0.119500
     17 C11          1.9840     1.5130    -0.0110 cc         1 HK4       0.356800
     18 N2           1.6660     2.7930    -0.0060 nd         1 HK4      -0.477800
     19 N1           0.3350     2.7850     0.0040 na         1 HK4      -0.003600
     20 C20          4.5420     1.0480    -0.0330 ca         1 HK4      -0.150000
     21 C18          5.4880     0.0360    -0.0400 ca         1 HK4       0.105100
     22 O4           6.8200     0.2320    -0.0510 os         1 HK4      -0.298900
     23 C19          7.2950     1.5620    -0.0540 c3         1 HK4       0.121700
     24 C16          5.0800    -1.3190    -0.0370 ca         1 HK4       0.116100
     25 C15          3.7300    -1.6440    -0.0270 ca         1 HK4      -0.179000
     26 O3           6.0820    -2.2170    -0.0440 os         1 HK4      -0.296900
     27 C17          5.7480    -3.5890    -0.0410 c3         1 HK4       0.122700
     28 H2          -8.3360    -1.1180     0.0650 ho         1 HK4       0.446000
     29 H73         -4.9020    -3.2530    -0.8230 h1         1 HK4       0.043700
     30 H72         -4.8900    -3.2470     0.9570 h1         1 HK4       0.043700
     31 H71         -6.1400    -4.1450     0.0780 h1         1 HK4       0.043700
     32 H5          -3.8210    -1.3530     0.0520 ha         1 HK4       0.143000
     33 H4          -4.8300     2.8100     0.0100 ha         1 HK4       0.142000
     34 H3          -7.2290     2.2270     0.0290 ha         1 HK4       0.153000
     35 H6           0.9190    -1.3080     0.8720 hc         1 HK4       0.066700
     36 H7           0.9060    -1.3060    -0.8830 hc         1 HK4       0.066700
     37 H1          -0.1720     3.6560     0.0130 hn         1 HK4       0.326700
     38 H9           4.8340     2.0890    -0.0350 ha         1 HK4       0.150000
     39 H191         6.9650     2.1110    -0.9400 h1         1 HK4       0.040033
     40 H192         6.9780     2.1100     0.8370 h1         1 HK4       0.040033
     41 H193         8.3810     1.5040    -0.0620 h1         1 HK4       0.040033
     42 H8           3.4070    -2.6770    -0.0240 ha         1 HK4       0.138000
     43 H172         5.1830    -3.8710     0.8520 h1         1 HK4       0.039033
     44 H171         5.1720    -3.8730    -0.9250 h1         1 HK4       0.039033
     45 H173         6.6880    -4.1360    -0.0460 h1         1 HK4       0.039033
@<TRIPOS>BOND
     1     1     2 1   
     2     1    28 1   
     3     2     3 ar  
     4     2     9 ar  
     5     3     4 1   
     6     3     6 ar  
     7     4     5 1   
     8     5    29 1   
     9     5    30 1   
    10     5    31 1   
    11     6     7 ar  
    12     6    32 1   
    13     7     8 ar  
    14     7    10 1   
    15     8     9 ar  
    16     8    33 1   
    17     9    34 1   
    18    10    11 3   
    19    11    12 1   
    20    12    13 2   
    21    12    19 1   
    22    13    14 1   
    23    13    17 1   
    24    14    15 1   
    25    14    35 1   
    26    14    36 1   
    27    15    16 ar  
    28    15    25 ar  
    29    16    17 1   
    30    16    20 ar  
    31    17    18 2   
    32    18    19 1   
    33    19    37 1   
    34    20    21 ar  
    35    20    38 1   
    36    21    22 1   
    37    21    24 ar  
    38    22    23 1   
    39    23    39 1   
    40    23    40 1   
    41    23    41 1   
    42    24    25 ar  
    43    24    26 1   
    44    25    42 1   
    45    26    27 1   
    46    27    43 1   
    47    27    44 1   
    48    27    45 1   
@<TRIPOS>SUBSTRUCTURE
     1 HK4         1 TEMP              0 ****  ****    0 ROOT
