@<TRIPOS>MOLECULE
HK5
   45    49     1     0     0
SMALL
abcg2


@<TRIPOS>ATOM
      1 N5           8.7590     2.0210    -0.1560 n1         1 HK5      -0.442000
      2 C22          7.7290     1.5070    -0.0890 cg         1 HK5       0.319000
      3 C19          6.4520     0.8780    -0.0050 ca         1 HK5      -0.011000
      4 C18          6.3660    -0.5060     0.1420 ca         1 HK5      -0.067000
      5 C17          5.1270    -1.1110     0.2200 ca         1 HK5      -0.104500
      6 C20          5.2910     1.6490    -0.0710 ca         1 HK5      -0.067000
      7 C21          4.0580     1.0340     0.0130 ca         1 HK5      -0.104500
      8 C16          3.9560    -0.3510     0.1620 ca         1 HK5       0.009000
      9 C15          2.6370    -0.9610     0.2390 cc         1 HK5      -0.079000
     10 N4           2.4200    -2.2390     0.6590 na         1 HK5      -0.001200
     11 N3           1.1450    -2.6140     0.6410 nc         1 HK5      -0.469800
     12 C14          0.5200    -1.5450     0.1880 cd         1 HK5       0.277500
     13 C4          -0.8430    -1.1630    -0.1390 ca         1 HK5      -0.064500
     14 C3          -2.0420    -1.8550    -0.0540 ca         1 HK5      -0.164000
     15 C13          1.3870    -0.4790    -0.0770 cd         1 HK5      -0.182300
     16 C12          0.6340     0.6970    -0.6100 c5         1 HK5       0.060200
     17 C5          -0.7830     0.1520    -0.6150 ca         1 HK5      -0.124300
     18 C6          -1.9500     0.7760    -1.0120 ca         1 HK5      -0.046000
     19 C7          -3.1680     0.1100    -0.9390 ca         1 HK5      -0.152300
     20 C2          -3.2100    -1.2100    -0.4560 ca         1 HK5       0.164100
     21 O           -4.4260    -1.7820    -0.4160 os         1 HK5      -0.347100
     22 C1          -4.5430    -3.1070     0.0650 c3         1 HK5       0.146900
     23 C8          -4.4310     0.8190    -1.3510 c3         1 HK5       0.135900
     24 N1          -5.1320     1.4110    -0.2220 na         1 HK5      -0.164500
     25 C11         -4.8710     2.6200     0.3180 cc         1 HK5       0.382400
     26 N2          -5.6140     2.8600     1.3670 nd         1 HK5      -0.675000
     27 C10         -6.3930     1.7470     1.5180 cd         1 HK5       0.218900
     28 C9          -6.1070     0.8350     0.5430 cc         1 HK5      -0.219000
     29 H15          7.2640    -1.1070     0.1890 ha         1 HK5       0.130500
     30 H14          5.0890    -2.1880     0.3120 ha         1 HK5       0.120500
     31 H16          5.3550     2.7220    -0.1830 ha         1 HK5       0.130500
     32 H17          3.1680     1.6470    -0.0270 ha         1 HK5       0.120500
     33 H1           3.1080    -2.8880     1.0100 hn         1 HK5       0.375000
     34 H5          -2.0540    -2.8700     0.3180 ha         1 HK5       0.134000
     35 H13          0.7170     1.5820     0.0270 hc         1 HK5       0.067200
     36 H12          0.9620     0.9950    -1.6090 hc         1 HK5       0.067200
     37 H6          -1.9280     1.7920    -1.3910 ha         1 HK5       0.116000
     38 H4          -3.9810    -3.8140    -0.5490 h1         1 HK5       0.045033
     39 H2          -4.2090    -3.1950     1.1020 h1         1 HK5       0.045033
     40 H3          -5.5990    -3.3590     0.0150 h1         1 HK5       0.045033
     41 H8          -4.1900     1.6230    -2.0470 h1         1 HK5       0.067200
     42 H7          -5.1210     0.1530    -1.8660 h1         1 HK5       0.067200
     43 H11         -4.1340     3.2880    -0.1030 h5         1 HK5       0.047100
     44 H10         -7.1170     1.6600     2.3130 h4         1 HK5       0.034100
     45 H9          -6.5050    -0.1420     0.3310 h4         1 HK5       0.159000
@<TRIPOS>BOND
     1     1     2 3   
     2     2     3 1   
     3     3     4 ar  
     4     3     6 ar  
     5     4     5 ar  
     6     4    29 1   
     7     5     8 ar  
     8     5    30 1   
     9     6     7 ar  
    10     6    31 1   
    11     7     8 ar  
    12     7    32 1   
    13     8     9 1   
    14     9    10 1   
    15     9    15 2   
    16    10    11 1   
    17    10    33 1   
    18    11    12 2   
    19    12    13 1   
    20    12    15 1   
    21    13    14 ar  
    22    13    17 ar  
    23    14    20 ar  
    24    14    34 1   
    25    15    16 1   
    26    16    17 1   
    27    16    35 1   
    28    16    36 1   
    29    17    18 ar  
    30    18    19 ar  
    31    18    37 1   
    32    19    20 ar  
    33    19    23 1   
    34    20    21 1   
    35    21    22 1   
    36    22    38 1   
    37    22    39 1   
    38    22    40 1   
    39    23    24 1   
    40    23    41 1   
    41    23    42 1   
    42    24    25 1   
    43    24    28 1   
    44    25    26 2   
    45    25    43 1   
    46    26    27 1   
    47    27    28 2   
    48    27    44 1   
    49    28    45 1   
@<TRIPOS>SUBSTRUCTURE
     1 HK5         1 TEMP              0 ****  ****    0 ROOT
