@<TRIPOS>MOLECULE
HK5
   45    49     1     0     0
SMALL
No Charge or Current Charge


@<TRIPOS>ATOM
      1 N5           8.5190     2.2970    -0.6660 n1         1 HK5      -0.442000
      2 C22          7.5150     1.7350    -0.4640 cg         1 HK5       0.319000
      3 C19          6.2850     1.0340    -0.2170 ca         1 HK5      -0.011000
      4 C18          6.2040    -0.3540    -0.4360 ca         1 HK5      -0.067000
      5 C17          5.0000    -1.0390    -0.1930 ca         1 HK5      -0.104500
      6 C20          5.1540     1.7280     0.2500 ca         1 HK5      -0.067000
      7 C21          3.9510     1.0400     0.4910 ca         1 HK5      -0.104500
      8 C16          3.8600    -0.3480     0.2640 ca         1 HK5       0.009000
      9 C15          2.6180    -1.0830     0.5150 cc         1 HK5      -0.079000
     10 N4           2.4190    -2.4380     0.8580 na         1 HK5      -0.001200
     11 N3           1.0670    -2.8350     0.8360 nc         1 HK5      -0.469800
     12 C14          0.5040    -1.6980     0.4900 cd         1 HK5       0.277500
     13 C4          -0.8070    -1.2720     0.0890 ca         1 HK5      -0.064500
     14 C3          -2.0220    -1.9640     0.0630 ca         1 HK5      -0.164000
     15 C13          1.3480    -0.6530     0.2830 cd         1 HK5      -0.182300
     16 C12          0.7800     0.6280    -0.2900 c5         1 HK5       0.060200
     17 C5          -0.6700     0.0500    -0.3730 ca         1 HK5      -0.124300
     18 C6          -1.8010     0.7210    -0.8590 ca         1 HK5      -0.046000
     19 C7          -3.0500     0.0560    -0.8840 ca         1 HK5      -0.152300
     20 C2          -3.1640    -1.2850    -0.4260 ca         1 HK5       0.164100
     21 O           -4.4040    -1.8950    -0.4760 os         1 HK5      -0.347100
     22 C1          -4.6200    -3.2410    -0.0170 c3         1 HK5       0.146900
     23 C8          -4.2720     0.8050    -1.4070 c3         1 HK5       0.135900
     24 N1          -5.0040     1.5070    -0.3430 na         1 HK5      -0.164500
     25 C11         -4.7590     2.7890     0.1000 cc         1 HK5       0.382400
     26 N2          -5.5970     3.1180     1.0740 nd         1 HK5      -0.675000
     27 C10         -6.3980     2.0110     1.2670 cd         1 HK5       0.218900
     28 C9          -6.0480     1.0050     0.4040 cc         1 HK5      -0.219000
     29 H15          7.0720    -0.9040    -0.7950 ha         1 HK5       0.130500
     30 H14          4.9550    -2.1100    -0.3740 ha         1 HK5       0.120500
     31 H16          5.2050     2.8000     0.4330 ha         1 HK5       0.130500
     32 H17          3.0990     1.5910     0.8760 ha         1 HK5       0.120500
     33 H1           3.1550    -3.1040     1.0870 hn         1 HK5       0.375000
     34 H5          -2.0610    -2.9910     0.4150 ha         1 HK5       0.134000
     35 H13          0.8500     1.4880     0.3850 hc         1 HK5       0.067200
     36 H12          1.1970     0.8950    -1.2680 hc         1 HK5       0.067200
     37 H6          -1.7120     1.7450    -1.2130 ha         1 HK5       0.116000
     38 H4          -4.0100    -3.9520    -0.5890 h1         1 HK5       0.045033
     39 H2          -4.3680    -3.3360     1.0470 h1         1 HK5       0.045033
     40 H3          -5.6740    -3.5200    -0.1420 h1         1 HK5       0.045033
     41 H8          -3.9570     1.5400    -2.1590 h1         1 HK5       0.067200
     42 H7          -4.9570     0.1090    -1.9080 h1         1 HK5       0.067200
     43 H11         -3.9790     3.4130    -0.3210 h5         1 HK5       0.047100
     44 H10         -7.1810     1.9990     2.0170 h4         1 HK5       0.034100
     45 H9          -6.4510     0.0080     0.2770 h4         1 HK5       0.159000
@<TRIPOS>BOND
     1     1     2 3   
     2     2     3 1   
     3     3     4 ar  
     4     3     6 ar  
     5     4     5 ar  
     6     4    29 1   
     7     5     8 ar  
     8     5    30 1   
     9     6     7 ar  
    10     6    31 1   
    11     7     8 ar  
    12     7    32 1   
    13     8     9 1   
    14     9    10 1   
    15     9    15 2   
    16    10    11 1   
    17    10    33 1   
    18    11    12 2   
    19    12    13 1   
    20    12    15 1   
    21    13    14 ar  
    22    13    17 ar  
    23    14    20 ar  
    24    14    34 1   
    25    15    16 1   
    26    16    17 1   
    27    16    35 1   
    28    16    36 1   
    29    17    18 ar  
    30    18    19 ar  
    31    18    37 1   
    32    19    20 ar  
    33    19    23 1   
    34    20    21 1   
    35    21    22 1   
    36    22    38 1   
    37    22    39 1   
    38    22    40 1   
    39    23    24 1   
    40    23    41 1   
    41    23    42 1   
    42    24    25 1   
    43    24    28 1   
    44    25    26 2   
    45    25    43 1   
    46    26    27 1   
    47    27    28 2   
    48    27    44 1   
    49    28    45 1   
@<TRIPOS>SUBSTRUCTURE
     1 HK5         1 TEMP              0 ****  ****    0 ROOT
