@<TRIPOS>MOLECULE
HK6
   26    28     1     0     0
SMALL
abcg2


@<TRIPOS>ATOM
      1 O            1.9500    -2.8220     0.1350 o          1 HK6      -0.547000
      2 C11          1.3980    -1.7350     0.1690 c          1 HK6       0.596600
      3 C10          2.1470    -0.5000    -0.1870 ca         1 HK6      -0.174600
      4 C9           3.2390    -0.6600    -1.0440 ca         1 HK6      -0.034000
      5 C8           4.0960     0.3870    -1.3230 ca         1 HK6      -0.144000
      6 C7           3.8850     1.6170    -0.7110 ca         1 HK6      -0.057000
      7 C6           2.8040     1.7980     0.1320 ca         1 HK6      -0.177000
      8 C5           1.9160     0.7530     0.3920 ca         1 HK6       0.311000
      9 N1           0.8370     0.9790     1.2490 na         1 HK6      -0.934000
     10 N2           0.0930    -1.6550     0.5400 ns         1 HK6      -0.400100
     11 C12         -0.8070    -0.5910     0.4190 ca         1 HK6       0.071600
     12 C13         -2.1040    -0.8660    -0.0020 ca         1 HK6      -0.129000
     13 C1          -3.0520     0.1420    -0.0180 ca         1 HK6       0.126000
     14 CL          -4.6680    -0.2260    -0.5240 cl         1 HK6      -0.193000
     15 C4          -0.4600     0.7040     0.7970 ca         1 HK6       0.246000
     16 C3          -1.4250     1.7050     0.7490 ca         1 HK6      -0.129000
     17 C2          -2.7260     1.4330     0.3600 ca         1 HK6      -0.097000
     18 H7           3.4180    -1.6290    -1.4890 ha         1 HK6       0.135000
     19 H6           4.9300     0.2440    -1.9970 ha         1 HK6       0.123000
     20 H5           4.5550     2.4450    -0.9020 ha         1 HK6       0.117000
     21 H4           2.6350     2.7630     0.5940 ha         1 HK6       0.114000
     22 H3           0.8960     1.8790     1.7050 hn         1 HK6       0.462000
     23 H8          -0.3280    -2.5570     0.7200 hn         1 HK6       0.323500
     24 H9          -2.3680    -1.8740    -0.2950 ha         1 HK6       0.136000
     25 H2          -1.1560     2.7140     1.0350 ha         1 HK6       0.120000
     26 H1          -3.4660     2.2210     0.3440 ha         1 HK6       0.134000
@<TRIPOS>BOND
     1     1     2 2   
     2     2     3 1   
     3     2    10 1   
     4     3     4 ar  
     5     3     8 ar  
     6     4     5 ar  
     7     4    18 1   
     8     5     6 ar  
     9     5    19 1   
    10     6     7 ar  
    11     6    20 1   
    12     7     8 ar  
    13     7    21 1   
    14     8     9 1   
    15     9    15 1   
    16     9    22 1   
    17    10    11 1   
    18    10    23 1   
    19    11    12 ar  
    20    11    15 ar  
    21    12    13 ar  
    22    12    24 1   
    23    13    14 1   
    24    13    17 ar  
    25    15    16 ar  
    26    16    17 ar  
    27    16    25 1   
    28    17    26 1   
@<TRIPOS>SUBSTRUCTURE
     1 HK6         1 TEMP              0 ****  ****    0 ROOT
