@<TRIPOS>MOLECULE
HK6
   26    28     1     0     0
SMALL
No Charge or Current Charge


@<TRIPOS>ATOM
      1 O            1.9720    -2.8690     0.2960 o          1 HK6      -0.547000
      2 C11          1.4280    -1.7770     0.2080 c          1 HK6       0.596600
      3 C10          2.2230    -0.5430    -0.1330 ca         1 HK6      -0.174600
      4 C9           3.3820    -0.6980    -0.9300 ca         1 HK6      -0.034000
      5 C8           4.1670     0.4120    -1.2820 ca         1 HK6      -0.144000
      6 C7           3.8160     1.6920    -0.8300 ca         1 HK6      -0.057000
      7 C6           2.6840     1.8500    -0.0170 ca         1 HK6      -0.177000
      8 C5           1.8900     0.7450     0.3300 ca         1 HK6       0.311000
      9 N1           0.8430     0.9710     1.1980 na         1 HK6      -0.934000
     10 N2           0.0640    -1.7050     0.3820 ns         1 HK6      -0.400100
     11 C12         -0.8330    -0.6100     0.3770 ca         1 HK6       0.071600
     12 C13         -2.1710    -0.8520     0.0130 ca         1 HK6      -0.129000
     13 C1          -3.1050     0.1960     0.0030 ca         1 HK6       0.126000
     14 Cl          -4.7690    -0.1180    -0.4670 cl         1 HK6      -0.193000
     15 C4          -0.4420     0.6960     0.7590 ca         1 HK6       0.246000
     16 C3          -1.3840     1.7390     0.7550 ca         1 HK6      -0.129000
     17 C2          -2.7140     1.4930     0.3710 ca         1 HK6      -0.097000
     18 H7           3.6700    -1.6830    -1.2920 ha         1 HK6       0.135000
     19 H6           5.0490     0.2790    -1.9040 ha         1 HK6       0.123000
     20 H5           4.4250     2.5530    -1.0970 ha         1 HK6       0.117000
     21 H4           2.4250     2.8400     0.3510 ha         1 HK6       0.114000
     22 H3           0.9960     1.4760     2.0660 hn         1 HK6       0.462000
     23 H8          -0.3650    -2.6070     0.5430 hn         1 HK6       0.323500
     24 H9          -2.4880    -1.8520    -0.2730 ha         1 HK6       0.136000
     25 H2          -1.0860     2.7410     1.0540 ha         1 HK6       0.120000
     26 H1          -3.4410     2.3010     0.3660 ha         1 HK6       0.134000
@<TRIPOS>BOND
     1     1     2 2   
     2     2     3 1   
     3     2    10 1   
     4     3     4 ar  
     5     3     8 ar  
     6     4     5 ar  
     7     4    18 1   
     8     5     6 ar  
     9     5    19 1   
    10     6     7 ar  
    11     6    20 1   
    12     7     8 ar  
    13     7    21 1   
    14     8     9 1   
    15     9    15 1   
    16     9    22 1   
    17    10    11 1   
    18    10    23 1   
    19    11    12 ar  
    20    11    15 ar  
    21    12    13 ar  
    22    12    24 1   
    23    13    14 1   
    24    13    17 ar  
    25    15    16 ar  
    26    16    17 ar  
    27    16    25 1   
    28    17    26 1   
@<TRIPOS>SUBSTRUCTURE
     1 HK6         1 TEMP              0 ****  ****    0 ROOT
