@<TRIPOS>MOLECULE
HK7
   40    43     1     0     0
SMALL
bcc


@<TRIPOS>ATOM
      1 O2          -3.2560     1.6910     1.5740 o          1 HK7      -0.580100
      2 C16         -3.9410     1.3130     0.6360 c          1 HK7       0.680700
      3 N3          -4.7820     2.1060    -0.0420 nt         1 HK7      -0.676000
      4 C15         -3.9220    -0.1180     0.1870 ca         1 HK7      -0.136600
      5 C14         -5.1220    -0.8200     0.1260 ca         1 HK7      -0.109000
      6 C13         -5.1340    -2.1780    -0.1590 ca         1 HK7      -0.129000
      7 C12         -3.9390    -2.8400    -0.3930 ca         1 HK7      -0.113000
      8 C11         -2.7410    -2.1420    -0.3480 ca         1 HK7      -0.124000
      9 C10         -2.7130    -0.7790    -0.0590 cp         1 HK7       0.002000
     10 C8          -1.4160    -0.0690    -0.0820 cp         1 HK7       0.020000
     11 C7          -1.2380     1.0730    -0.8660 ca         1 HK7      -0.147000
     12 C6          -0.0130     1.7030    -0.8910 ca         1 HK7      -0.050000
     13 C5           1.0810     1.2090    -0.1770 ca         1 HK7      -0.167600
     14 C1           2.3020     2.0560    -0.1510 c          1 HK7       0.739100
     15 O1           2.2140     3.2660    -0.2960 o          1 HK7      -0.628500
     16 C9          -0.3330    -0.5750     0.6200 ca         1 HK7      -0.176000
     17 C4           0.9190     0.0390     0.5730 ca         1 HK7       0.173600
     18 N2           1.9710    -0.5130     1.3070 na         1 HK7      -0.599000
     19 C3           3.1560    -0.8520     0.6340 ca         1 HK7       0.104600
     20 C17          3.6210    -2.1630     0.6330 ca         1 HK7      -0.154000
     21 C18          4.8180    -2.4920     0.0160 ca         1 HK7      -0.123000
     22 C19          5.5490    -1.5090    -0.6380 ca         1 HK7      -0.120000
     23 C20          5.0800    -0.2050    -0.6590 ca         1 HK7      -0.150000
     24 C2           3.8940     0.1350    -0.0160 ca         1 HK7       0.062600
     25 N1           3.5180     1.4850     0.0380 ns         1 HK7      -0.466100
     26 H16         -4.8810     3.0770     0.2090 hn         1 HK7       0.315000
     27 H17         -5.2690     1.7880    -0.8620 hn         1 HK7       0.315000
     28 H9          -6.0550    -0.3110     0.3310 ha         1 HK7       0.136000
     29 H8          -6.0730    -2.7140    -0.1950 ha         1 HK7       0.136000
     30 H7          -3.9360    -3.8980    -0.6190 ha         1 HK7       0.135000
     31 H6          -1.8140    -2.6570    -0.5640 ha         1 HK7       0.137000
     32 H4          -2.0560     1.4680    -1.4550 ha         1 HK7       0.136000
     33 H3           0.1060     2.6020    -1.4800 ha         1 HK7       0.152000
     34 H5          -0.4550    -1.4650     1.2270 ha         1 HK7       0.135000
     35 H2           1.6580    -1.2560     1.9160 hn         1 HK7       0.404800
     36 H12          3.0430    -2.9280     1.1370 ha         1 HK7       0.132000
     37 H13          5.1690    -3.5140     0.0380 ha         1 HK7       0.136000
     38 H14          6.4800    -1.7530    -1.1310 ha         1 HK7       0.137000
     39 H15          5.6470     0.5660    -1.1640 ha         1 HK7       0.137000
     40 H1           4.2820     2.1470    -0.0050 hn         1 HK7       0.321500
@<TRIPOS>BOND
     1     1     2 2   
     2     2     3 1   
     3     2     4 1   
     4     3    26 1   
     5     3    27 1   
     6     4     5 ar  
     7     4     9 ar  
     8     5     6 ar  
     9     5    28 1   
    10     6     7 ar  
    11     6    29 1   
    12     7     8 ar  
    13     7    30 1   
    14     8     9 ar  
    15     8    31 1   
    16     9    10 1   
    17    10    11 ar  
    18    10    16 ar  
    19    11    12 ar  
    20    11    32 1   
    21    12    13 ar  
    22    12    33 1   
    23    13    14 1   
    24    13    17 ar  
    25    14    15 2   
    26    14    25 1   
    27    16    17 ar  
    28    16    34 1   
    29    17    18 1   
    30    18    19 1   
    31    18    35 1   
    32    19    20 ar  
    33    19    24 ar  
    34    20    21 ar  
    35    20    36 1   
    36    21    22 ar  
    37    21    37 1   
    38    22    23 ar  
    39    22    38 1   
    40    23    24 ar  
    41    23    39 1   
    42    24    25 1   
    43    25    40 1   
@<TRIPOS>SUBSTRUCTURE
     1 HK7         1 TEMP              0 ****  ****    0 ROOT
