@<TRIPOS>MOLECULE
HK7
   40    43     1     0     0
SMALL
No Charge or Current Charge


@<TRIPOS>ATOM
      1 O2          -3.0360     1.7050     1.4350 o          1 HK7      -0.580100
      2 C16         -3.9430     1.2290     0.7730 c          1 HK7       0.613700
      3 N3          -5.0610     1.9620     0.5750 nt         1 HK7      -0.609000
      4 C15         -3.9430    -0.1770     0.2070 ca         1 HK7      -0.136600
      5 C14         -5.1390    -0.9230     0.0990 ca         1 HK7      -0.091000
      6 C13         -5.1110    -2.2410    -0.3810 ca         1 HK7      -0.111000
      7 C12         -3.8920    -2.8250    -0.7570 ca         1 HK7      -0.095000
      8 C11         -2.7030    -2.0840    -0.6680 ca         1 HK7      -0.106000
      9 C10         -2.6940    -0.7470    -0.1980 cp         1 HK7       0.002000
     10 C8          -1.3940    -0.0100    -0.2120 cp         1 HK7       0.020000
     11 C7          -1.2270     1.1700    -0.9690 ca         1 HK7      -0.129000
     12 C6           0.0050     1.8420    -0.9950 ca         1 HK7      -0.032000
     13 C5           1.1180     1.3390    -0.2850 ca         1 HK7      -0.167600
     14 C1           2.4110     2.1100    -0.3570 c          1 HK7       0.596600
     15 O1           2.4110     3.3220    -0.5180 o          1 HK7      -0.553000
     16 C9          -0.2790    -0.4980     0.5030 ca         1 HK7      -0.158000
     17 C4           0.9580     0.1640     0.4750 ca         1 HK7       0.312000
     18 N2           1.9620    -0.3390     1.2760 na         1 HK7      -0.931000
     19 C3           3.1260    -0.7800     0.6690 ca         1 HK7       0.243000
     20 C17          3.5170    -2.1160     0.8610 ca         1 HK7      -0.136000
     21 C18          4.7190    -2.5910     0.3100 ca         1 HK7      -0.105000
     22 C19          5.5430    -1.7230    -0.4240 ca         1 HK7      -0.102000
     23 C20          5.1610    -0.3830    -0.6120 ca         1 HK7      -0.132000
     24 C2           3.9480     0.0950    -0.0810 ca         1 HK7       0.062600
     25 N1           3.6210     1.4560    -0.2900 ns         1 HK7      -0.399100
     26 H16         -5.1100     2.8960     0.9520 hn         1 HK7       0.315000
     27 H17         -5.8210     1.5870     0.0280 hn         1 HK7       0.315000
     28 H9          -6.0900    -0.4980     0.4120 ha         1 HK7       0.118000
     29 H8          -6.0330    -2.8150    -0.4520 ha         1 HK7       0.118000
     30 H7          -3.8700    -3.8470    -1.1280 ha         1 HK7       0.117000
     31 H6          -1.7700    -2.5440    -0.9860 ha         1 HK7       0.119000
     32 H4          -2.0630     1.5650    -1.5420 ha         1 HK7       0.118000
     33 H3           0.0970     2.7510    -1.5870 ha         1 HK7       0.134000
     34 H5          -0.3870    -1.4000     1.0980 ha         1 HK7       0.117000
     35 H2           1.7870    -0.5320     2.2590 hn         1 HK7       0.460000
     36 H12          2.8880    -2.7870     1.4410 ha         1 HK7       0.114000
     37 H13          5.0160    -3.6270     0.4600 ha         1 HK7       0.118000
     38 H14          6.4780    -2.0870    -0.8440 ha         1 HK7       0.119000
     39 H15          5.8070     0.2820    -1.1800 ha         1 HK7       0.119000
     40 H1           4.4150     2.0690    -0.4170 hn         1 HK7       0.321500
@<TRIPOS>BOND
     1     1     2 2   
     2     2     3 1   
     3     2     4 1   
     4     3    26 1   
     5     3    27 1   
     6     4     5 ar  
     7     4     9 ar  
     8     5     6 ar  
     9     5    28 1   
    10     6     7 ar  
    11     6    29 1   
    12     7     8 ar  
    13     7    30 1   
    14     8     9 ar  
    15     8    31 1   
    16     9    10 1   
    17    10    11 ar  
    18    10    16 ar  
    19    11    12 ar  
    20    11    32 1   
    21    12    13 ar  
    22    12    33 1   
    23    13    14 1   
    24    13    17 ar  
    25    14    15 2   
    26    14    25 1   
    27    16    17 ar  
    28    16    34 1   
    29    17    18 1   
    30    18    19 1   
    31    18    35 1   
    32    19    20 ar  
    33    19    24 ar  
    34    20    21 ar  
    35    20    36 1   
    36    21    22 ar  
    37    21    37 1   
    38    22    23 ar  
    39    22    38 1   
    40    23    24 ar  
    41    23    39 1   
    42    24    25 1   
    43    25    40 1   
@<TRIPOS>SUBSTRUCTURE
     1 HK7         1 TEMP              0 ****  ****    0 ROOT
