@<TRIPOS>MOLECULE
HK8
   31    33     1     0     0
SMALL
abcg2


@<TRIPOS>ATOM
      1 O3           1.1780    -3.3860    -0.0980 o          1 HK8      -0.584000
      2 C13          0.8710    -2.2090     0.0190 c          1 HK8       0.590600
      3 C12          1.9210    -1.1560    -0.0740 ca         1 HK8      -0.174600
      4 C11          3.0680    -1.4880    -0.7950 ca         1 HK8      -0.028000
      5 C10          4.1830    -0.6740    -0.8160 ca         1 HK8      -0.162000
      6 C9           4.1540     0.4900    -0.0610 ca         1 HK8       0.168000
      7 CL           5.5440     1.5190    -0.0330 cl         1 HK8      -0.221000
      8 C8           3.0340     0.8600     0.6540 ca         1 HK8      -0.191000
      9 C7           1.8970     0.0480     0.6420 ca         1 HK8       0.342000
     10 N1           0.7830     0.4440     1.3730 na         1 HK8      -0.928000
     11 N2          -0.4180    -1.8640     0.2470 ns         1 HK8      -0.385100
     12 C14         -1.0400    -0.6080     0.1620 ca         1 HK8       0.049600
     13 C6          -0.4690     0.5240     0.7350 ca         1 HK8       0.195000
     14 C5          -1.1670     1.7240     0.6890 ca         1 HK8      -0.133000
     15 C4          -2.4270     1.7900     0.1130 ca         1 HK8      -0.118000
     16 C15         -2.2950    -0.5250    -0.4290 ca         1 HK8      -0.112000
     17 C3          -3.0140     0.6640    -0.4570 ca         1 HK8       0.026700
     18 C2          -4.3770     0.7220    -1.0680 c3         1 HK8      -0.196100
     19 C1          -5.5080     0.1370    -0.1810 c          1 HK8       0.725000
     20 O2          -5.1790    -0.6240     0.7450 o          1 HK8      -0.720500
     21 O1          -6.6650     0.4690    -0.5070 o          1 HK8      -0.720500
     22 H9           3.0910    -2.4180    -1.3460 ha         1 HK8       0.134000
     23 H8           5.0590    -0.9490    -1.3870 ha         1 HK8       0.126000
     24 H7           3.0270     1.7820     1.2200 ha         1 HK8       0.125000
     25 H6           0.9680     1.2550     1.9460 hn         1 HK8       0.454000
     26 H10         -1.0490    -2.6540     0.2610 hn         1 HK8       0.327500
     27 H5          -0.7230     2.6120     1.1220 ha         1 HK8       0.095000
     28 H4          -2.9530     2.7370     0.1000 ha         1 HK8       0.113000
     29 H11         -2.7210    -1.4190    -0.8690 ha         1 HK8       0.126000
     30 H2          -4.6290     1.7500    -1.3360 hc         1 HK8       0.036200
     31 H3          -4.3850     0.1570    -2.0070 hc         1 HK8       0.036200
@<TRIPOS>BOND
     1     1     2 2   
     2     2     3 1   
     3     2    11 1   
     4     3     4 ar  
     5     3     9 ar  
     6     4     5 ar  
     7     4    22 1   
     8     5     6 ar  
     9     5    23 1   
    10     6     7 1   
    11     6     8 ar  
    12     8     9 ar  
    13     8    24 1   
    14     9    10 1   
    15    10    13 1   
    16    10    25 1   
    17    11    12 1   
    18    11    26 1   
    19    12    13 ar  
    20    12    16 ar  
    21    13    14 ar  
    22    14    15 ar  
    23    14    27 1   
    24    15    17 ar  
    25    15    28 1   
    26    16    17 ar  
    27    16    29 1   
    28    17    18 1   
    29    18    19 1   
    30    18    30 1   
    31    18    31 1   
    32    19    20 1   
    33    19    21 1   
@<TRIPOS>SUBSTRUCTURE
     1 HK8         1 TEMP              0 ****  ****    0 ROOT
