@<TRIPOS>MOLECULE
HK8
   31    33     1     0     0
SMALL
No Charge or Current Charge


@<TRIPOS>ATOM
      1 O3           1.2330    -3.4690     0.1870 o          1 HK8      -0.584000
      2 C13          0.9370    -2.2830     0.1360 c          1 HK8       0.590600
      3 C12          2.0040    -1.2240     0.0440 ca         1 HK8      -0.174600
      4 C11          3.2230    -1.5610    -0.5880 ca         1 HK8      -0.028000
      5 C10          4.2550    -0.6160    -0.7040 ca         1 HK8      -0.162000
      6 C9           4.0860     0.6690    -0.1760 ca         1 HK8       0.168000
      7 Cl           5.3780     1.8530    -0.3130 cl         1 HK8      -0.221000
      8 C8           2.8940     1.0060     0.4750 ca         1 HK8      -0.191000
      9 C7           1.8570     0.0690     0.5850 ca         1 HK8       0.342000
     10 N1           0.7460     0.4450     1.3090 na         1 HK8      -0.928000
     11 N2          -0.3960    -1.9390     0.1180 ns         1 HK8      -0.385100
     12 C14         -1.0480    -0.6830     0.0950 ca         1 HK8       0.049600
     13 C6          -0.4770     0.4790     0.6630 ca         1 HK8       0.195000
     14 C5          -1.1840     1.6920     0.6310 ca         1 HK8      -0.133000
     15 C4          -2.4540     1.7590     0.0340 ca         1 HK8      -0.118000
     16 C15         -2.3300    -0.6110    -0.4840 ca         1 HK8      -0.112000
     17 C3          -3.0360     0.6060    -0.5250 ca         1 HK8       0.026700
     18 C2          -4.4170     0.6740    -1.1680 c3         1 HK8      -0.196100
     19 C1          -5.4850     0.3450    -0.1160 c          1 HK8       0.725000
     20 O2          -5.7710    -0.8300     0.0630 o          1 HK8      -0.720500
     21 O1          -5.9120     1.2580     0.5740 o          1 HK8      -0.720500
     22 H9           3.3690    -2.5570    -1.0040 ha         1 HK8       0.134000
     23 H8           5.1850    -0.8820    -1.2010 ha         1 HK8       0.126000
     24 H7           2.7770     1.9970     0.9010 ha         1 HK8       0.125000
     25 H6           0.8530     0.8450     2.2380 hn         1 HK8       0.454000
     26 H10         -1.0140    -2.7400     0.1210 hn         1 HK8       0.327500
     27 H5          -0.7510     2.5850     1.0730 ha         1 HK8       0.095000
     28 H4          -2.9900     2.7050     0.0150 ha         1 HK8       0.113000
     29 H11         -2.7780    -1.5050    -0.9100 ha         1 HK8       0.126000
     30 H2          -4.5540     1.6980    -1.5360 hc         1 HK8       0.036200
     31 H3          -4.4370    -0.0730    -1.9710 hc         1 HK8       0.036200
@<TRIPOS>BOND
     1     1     2 2   
     2     2     3 1   
     3     2    11 1   
     4     3     4 ar  
     5     3     9 ar  
     6     4     5 ar  
     7     4    22 1   
     8     5     6 ar  
     9     5    23 1   
    10     6     7 1   
    11     6     8 ar  
    12     8     9 ar  
    13     8    24 1   
    14     9    10 1   
    15    10    13 1   
    16    10    25 1   
    17    11    12 1   
    18    11    26 1   
    19    12    13 ar  
    20    12    16 ar  
    21    13    14 ar  
    22    14    15 ar  
    23    14    27 1   
    24    15    17 ar  
    25    15    28 1   
    26    16    17 ar  
    27    16    29 1   
    28    17    18 1   
    29    18    19 1   
    30    18    30 1   
    31    18    31 1   
    32    19    20 1   
    33    19    21 1   
@<TRIPOS>SUBSTRUCTURE
     1 HK8         1 TEMP              0 ****  ****    0 ROOT
