@<TRIPOS>MOLECULE
HK9
   42    45     1     0     0
SMALL
No Charge or Current Charge


@<TRIPOS>ATOM
      1 O4          -4.0330    -2.9220     1.3100 o          1 HK9      -0.568000
      2 C14         -3.7710    -1.8360     0.8120 c          1 HK9       0.600600
      3 N2          -4.8010    -1.0850     0.2920 ns         1 HK9      -0.401100
      4 C13         -4.8260     0.2010    -0.3000 ca         1 HK9       0.061600
      5 C18         -5.8510     0.4840    -1.2220 ca         1 HK9      -0.137000
      6 C19         -5.9330     1.7480    -1.8310 ca         1 HK9      -0.112000
      7 C20         -4.9970     2.7440    -1.5100 ca         1 HK9      -0.107000
      8 C21         -3.9830     2.4750    -0.5750 ca         1 HK9      -0.137000
      9 C12         -3.8910     1.2110     0.0310 ca         1 HK9       0.257000
     10 N1          -2.9110     1.0070     0.9890 na         1 HK9      -0.939000
     11 C15         -2.3480    -1.3510     0.7200 ca         1 HK9      -0.198600
     12 C11         -1.9860     0.0080     0.7740 ca         1 HK9       0.307000
     13 C10         -0.6390     0.3890     0.6920 ca         1 HK9      -0.179000
     14 C16         -1.3220    -2.3150     0.6070 ca         1 HK9      -0.040000
     15 C17          0.0230    -1.9270     0.5140 ca         1 HK9      -0.146000
     16 C9           0.3960    -0.5640     0.5500 cp         1 HK9       0.067000
     17 C4           1.8330    -0.1470     0.4560 cp         1 HK9      -0.068000
     18 C3           2.7510    -0.8580    -0.3560 ca         1 HK9      -0.208000
     19 C5           2.3190     0.9680     1.1800 ca         1 HK9      -0.144000
     20 C6           3.6640     1.3590     1.0950 ca         1 HK9      -0.078000
     21 C7           4.5650     0.6490     0.2760 ca         1 HK9      -0.124600
     22 C8           6.0000     1.0900     0.1980 c          1 HK9       0.719600
     23 O3           6.6290     1.1700     1.2440 o          1 HK9      -0.708500
     24 O2           6.4440     1.4460    -0.8850 o          1 HK9      -0.708500
     25 C2           4.1090    -0.4700    -0.4500 ca         1 HK9       0.148100
     26 O1           5.0150    -1.1750    -1.2230 os         1 HK9      -0.293100
     27 C1           4.6430    -2.3320    -1.9900 c3         1 HK9       0.149900
     28 H9          -5.7010    -1.5430     0.3490 hn         1 HK9       0.311500
     29 H12         -6.5830    -0.2800    -1.4750 ha         1 HK9       0.113000
     30 H13         -6.7240     1.9560    -2.5490 ha         1 HK9       0.111000
     31 H14         -5.0620     3.7240    -1.9780 ha         1 HK9       0.113000
     32 H15         -3.2680     3.2530    -0.3180 ha         1 HK9       0.117000
     33 H8          -2.7770     1.6770     1.7410 hn         1 HK9       0.460000
     34 H7          -0.3900     1.4450     0.7300 ha         1 HK9       0.120000
     35 H10         -1.5680    -3.3750     0.5770 ha         1 HK9       0.124000
     36 H11          0.7870    -2.6950     0.4300 ha         1 HK9       0.124000
     37 H4           2.3860    -1.7090    -0.9220 ha         1 HK9       0.096000
     38 H5           1.6510     1.5300     1.8280 ha         1 HK9       0.092000
     39 H6           4.0120     2.2180     1.6650 ha         1 HK9       0.129000
     40 H3           4.2530    -3.1230    -1.3370 h1         1 HK9       0.024367
     41 H2           3.8770    -2.0760    -2.7330 h1         1 HK9       0.024367
     42 H1           5.5150    -2.7290    -2.5230 h1         1 HK9       0.024367
@<TRIPOS>BOND
     1     1     2 2   
     2     2     3 1   
     3     2    11 1   
     4     3     4 1   
     5     3    28 1   
     6     4     5 ar  
     7     4     9 ar  
     8     5     6 ar  
     9     5    29 1   
    10     6     7 ar  
    11     6    30 1   
    12     7     8 ar  
    13     7    31 1   
    14     8     9 ar  
    15     8    32 1   
    16     9    10 1   
    17    10    12 1   
    18    10    33 1   
    19    11    12 ar  
    20    11    14 ar  
    21    12    13 ar  
    22    13    16 ar  
    23    13    34 1   
    24    14    15 ar  
    25    14    35 1   
    26    15    16 ar  
    27    15    36 1   
    28    16    17 1   
    29    17    18 ar  
    30    17    19 ar  
    31    18    25 ar  
    32    18    37 1   
    33    19    20 ar  
    34    19    38 1   
    35    20    21 ar  
    36    20    39 1   
    37    21    22 1   
    38    21    25 ar  
    39    22    23 1   
    40    22    24 1   
    41    25    26 1   
    42    26    27 1   
    43    27    40 1   
    44    27    41 1   
    45    27    42 1   
@<TRIPOS>SUBSTRUCTURE
     1 HK9         1 TEMP              0 ****  ****    0 ROOT
