@<TRIPOS>MOLECULE
HK9
   42    45     1     0     0
SMALL
abcg2


@<TRIPOS>ATOM
      1 O4          -3.8740    -2.8940     1.2340 o          1 HK9      -0.568000
      2 C14         -3.6870    -1.7680     0.8000 c          1 HK9       0.600600
      3 N2          -4.7480    -0.9680     0.5240 ns         1 HK9      -0.401100
      4 C13         -4.8060     0.2260    -0.2090 ca         1 HK9       0.061600
      5 C18         -5.8580     0.4160    -1.1000 ca         1 HK9      -0.137000
      6 C19         -6.0230     1.6250    -1.7570 ca         1 HK9      -0.112000
      7 C20         -5.1180     2.6540    -1.5380 ca         1 HK9      -0.107000
      8 C21         -4.0520     2.4610    -0.6730 ca         1 HK9      -0.137000
      9 C12         -3.8940     1.2570     0.0060 ca         1 HK9       0.257000
     10 N1          -2.8470     1.0890     0.9250 na         1 HK9      -0.939000
     11 C15         -2.3040    -1.2680     0.5850 ca         1 HK9      -0.198600
     12 C11         -1.9160     0.0700     0.7230 ca         1 HK9       0.307000
     13 C10         -0.5610     0.3970     0.6870 ca         1 HK9      -0.179000
     14 C16         -1.3120    -2.2300     0.3830 ca         1 HK9      -0.040000
     15 C17          0.0240    -1.8950     0.3220 ca         1 HK9      -0.146000
     16 C9           0.4220    -0.5670     0.4970 cp         1 HK9       0.067000
     17 C4           1.8460    -0.1800     0.4670 cp         1 HK9      -0.068000
     18 C3           2.7420    -0.8580    -0.3620 ca         1 HK9      -0.208000
     19 C5           2.3220     0.8560     1.2630 ca         1 HK9      -0.144000
     20 C6           3.6650     1.1990     1.2140 ca         1 HK9      -0.078000
     21 C7           4.5650     0.5670     0.3660 ca         1 HK9      -0.124600
     22 C8           6.0030     1.0690     0.3190 c          1 HK9       0.719600
     23 O3           6.4930     1.4090     1.4130 o          1 HK9      -0.708500
     24 O2           6.5440     1.1350    -0.7980 o          1 HK9      -0.708500
     25 C2           4.0840    -0.4930    -0.4220 ca         1 HK9       0.148100
     26 O1           4.9770    -1.1390    -1.1940 os         1 HK9      -0.293100
     27 C1           4.5470    -2.2500    -1.9520 c3         1 HK9       0.149900
     28 H9          -5.6390    -1.4240     0.6700 hn         1 HK9       0.311500
     29 H12         -6.5640    -0.3890    -1.2640 ha         1 HK9       0.113000
     30 H13         -6.8540     1.7580    -2.4350 ha         1 HK9       0.111000
     31 H14         -5.2320     3.6030    -2.0450 ha         1 HK9       0.113000
     32 H15         -3.3370     3.2580    -0.5040 ha         1 HK9       0.117000
     33 H8          -2.4050     1.9670     1.1570 hn         1 HK9       0.460000
     34 H7          -0.2790     1.4380     0.7850 ha         1 HK9       0.120000
     35 H10         -1.5990    -3.2680     0.2890 ha         1 HK9       0.124000
     36 H11          0.7600    -2.6760     0.1810 ha         1 HK9       0.124000
     37 H4           2.3680    -1.6640    -0.9800 ha         1 HK9       0.096000
     38 H5           1.6600     1.3760     1.9420 ha         1 HK9       0.092000
     39 H6           4.0280     1.9950     1.8510 ha         1 HK9       0.129000
     40 H3           4.1520    -3.0510    -1.3210 h1         1 HK9       0.024367
     41 H2           3.7880    -1.9790    -2.6910 h1         1 HK9       0.024367
     42 H1           5.4240    -2.6220    -2.4760 h1         1 HK9       0.024367
@<TRIPOS>BOND
     1     1     2 2   
     2     2     3 1   
     3     2    11 1   
     4     3     4 1   
     5     3    28 1   
     6     4     5 ar  
     7     4     9 ar  
     8     5     6 ar  
     9     5    29 1   
    10     6     7 ar  
    11     6    30 1   
    12     7     8 ar  
    13     7    31 1   
    14     8     9 ar  
    15     8    32 1   
    16     9    10 1   
    17    10    12 1   
    18    10    33 1   
    19    11    12 ar  
    20    11    14 ar  
    21    12    13 ar  
    22    13    16 ar  
    23    13    34 1   
    24    14    15 ar  
    25    14    35 1   
    26    15    16 ar  
    27    15    36 1   
    28    16    17 1   
    29    17    18 ar  
    30    17    19 ar  
    31    18    25 ar  
    32    18    37 1   
    33    19    20 ar  
    34    19    38 1   
    35    20    21 ar  
    36    20    39 1   
    37    21    22 1   
    38    21    25 ar  
    39    22    23 1   
    40    22    24 1   
    41    25    26 1   
    42    26    27 1   
    43    27    40 1   
    44    27    41 1   
    45    27    42 1   
@<TRIPOS>SUBSTRUCTURE
     1 HK9         1 TEMP              0 ****  ****    0 ROOT
