@<TRIPOS>MOLECULE
HKA
   29    30     1     0     0
SMALL
abcg2


@<TRIPOS>ATOM
      1 CAL         -0.9950    -1.2150    -0.0040 ca         1 HKA       0.077100
      2 CAJ         -2.2440    -0.6190    -0.0270 ca         1 HKA      -0.140000
      3 CAP         -2.3850     0.7710    -0.0460 ca         1 HKA      -0.124600
      4 CAI         -1.2440     1.5550    -0.0420 ca         1 HKA      -0.092000
      5 CAK          0.0220     0.9740    -0.0200 ca         1 HKA      -0.180000
      6 CAR          0.1520    -0.4020    -0.0020 ca         1 HKA       0.066100
      7 CAO         -3.7730     1.3960    -0.0700 c          1 HKA       0.714600
      8 OAN          1.3400    -1.0670     0.0200 os         1 HKA      -0.254200
      9 OAB         -3.8260     2.6410    -0.0770 o          1 HKA      -0.721000
     10 OAA         -4.7400     0.6090    -0.0790 o          1 HKA      -0.721000
     11 CAM         -1.8840    -3.4090     0.0060 c3         1 HKA       0.152900
     12 CAG          3.0900     0.0140     1.2240 ca         1 HKA      -0.121000
     13 CAE          4.2960     0.7030     1.2160 ca         1 HKA      -0.109000
     14 C2           2.5050    -0.3420     0.0180 ca         1 HKA       0.126100
     15 CAD          4.9050     1.0390     0.0140 ca         1 HKA      -0.129000
     16 CAF          4.3070     0.6780    -1.1860 ca         1 HKA      -0.109000
     17 OAL         -0.7680    -2.5440     0.0160 os         1 HKA      -0.345100
     18 CAH          3.1020    -0.0120    -1.1900 ca         1 HKA      -0.121000
     19 HAJ         -3.1400    -1.2240    -0.0320 ha         1 HKA       0.138000
     20 HAI         -1.3290     2.6330    -0.0550 ha         1 HKA       0.130000
     21 HAK          0.8970     1.6100    -0.0180 ha         1 HKA       0.103000
     22 HAM1        -2.4920    -3.2840    -0.8940 h1         1 HKA       0.030033
     23 HAM2        -1.4900    -4.4220     0.0250 h1         1 HKA       0.030033
     24 HAM3        -2.5240    -3.2640     0.8810 h1         1 HKA       0.030033
     25 HAH          2.6330    -0.2960    -2.1240 ha         1 HKA       0.129000
     26 HAF          4.7790     0.9300    -2.1270 ha         1 HKA       0.104000
     27 HAD          5.8440     1.5760     0.0120 ha         1 HKA       0.102000
     28 HAG          2.6130    -0.2510     2.1590 ha         1 HKA       0.129000
     29 HAE          4.7580     0.9760     2.1550 ha         1 HKA       0.104000
@<TRIPOS>BOND
     1     1     2 ar  
     2     1     6 ar  
     3     1    17 1   
     4     2     3 ar  
     5     2    19 1   
     6     3     4 ar  
     7     3     7 1   
     8     4     5 ar  
     9     4    20 1   
    10     5     6 ar  
    11     5    21 1   
    12     6     8 1   
    13     7     9 1   
    14     7    10 1   
    15     8    14 1   
    16    11    17 1   
    17    11    22 1   
    18    11    23 1   
    19    11    24 1   
    20    12    13 ar  
    21    12    14 ar  
    22    12    28 1   
    23    13    15 ar  
    24    13    29 1   
    25    14    18 ar  
    26    15    16 ar  
    27    15    27 1   
    28    16    18 ar  
    29    16    26 1   
    30    18    25 1   
@<TRIPOS>SUBSTRUCTURE
     1 HKA         1 TEMP              0 ****  ****    0 ROOT
