@<TRIPOS>MOLECULE
HKA
   29    30     1     0     0
SMALL
No Charge or Current Charge


@<TRIPOS>ATOM
      1 CAL         -0.9840    -1.1220     0.2110 ca         1 HKA       0.077100
      2 CAJ         -2.2390    -0.6040    -0.1870 ca         1 HKA      -0.140000
      3 CAP         -2.4610     0.7940    -0.2600 ca         1 HKA      -0.124600
      4 CAI         -1.3990     1.6650     0.0780 ca         1 HKA      -0.092000
      5 CAK         -0.1510     1.1580     0.4740 ca         1 HKA      -0.180000
      6 CAR          0.0640    -0.2320     0.5310 ca         1 HKA       0.066100
      7 CAO         -3.8140     1.3500    -0.6890 c          1 HKA       0.714600
      8 OAN          1.2870    -0.7280     0.9330 os         1 HKA      -0.254200
      9 OAB         -3.9610     2.5630    -0.7350 o          1 HKA      -0.721000
     10 OAA         -4.7080     0.5640    -0.9730 o          1 HKA      -0.721000
     11 CAM         -1.7460    -3.4680    -0.0200 c3         1 HKA       0.152900
     12 CAG          3.5840    -0.2080     1.3780 ca         1 HKA      -0.121000
     13 CAE          4.8250     0.3050     0.9590 ca         1 HKA      -0.109000
     14 C2           2.4870    -0.2060     0.5000 ca         1 HKA       0.126100
     15 CAD          4.9700     0.8140    -0.3440 ca         1 HKA      -0.129000
     16 CAF          3.8780     0.8060    -1.2290 ca         1 HKA      -0.109000
     17 OAL         -0.7430    -2.4840     0.2910 os         1 HKA      -0.345100
     18 CAH          2.6370     0.2940    -0.8100 ca         1 HKA      -0.121000
     19 HAJ         -3.0530    -1.2760    -0.4420 ha         1 HKA       0.138000
     20 HAI         -1.5410     2.7440     0.0380 ha         1 HKA       0.130000
     21 HAK          0.6470     1.8460     0.7390 ha         1 HKA       0.103000
     22 HAM1        -2.0800    -3.3680    -1.0600 h1         1 HKA       0.030033
     23 HAM2        -1.3400    -4.4780     0.1120 h1         1 HKA       0.030033
     24 HAM3        -2.6150    -3.3610     0.6430 h1         1 HKA       0.030033
     25 HAH          1.7990     0.2800    -1.5020 ha         1 HKA       0.129000
     26 HAF          3.9930     1.1940    -2.2390 ha         1 HKA       0.104000
     27 HAD          5.9300     1.2100    -0.6680 ha         1 HKA       0.102000
     28 HAG          3.4710    -0.6040     2.3840 ha         1 HKA       0.129000
     29 HAE          5.6720     0.3070     1.6410 ha         1 HKA       0.104000
@<TRIPOS>BOND
     1     1     2 ar  
     2     1     6 ar  
     3     1    17 1   
     4     2     3 ar  
     5     2    19 1   
     6     3     4 ar  
     7     3     7 1   
     8     4     5 ar  
     9     4    20 1   
    10     5     6 ar  
    11     5    21 1   
    12     6     8 1   
    13     7     9 1   
    14     7    10 1   
    15     8    14 1   
    16    11    17 1   
    17    11    22 1   
    18    11    23 1   
    19    11    24 1   
    20    12    13 ar  
    21    12    14 ar  
    22    12    28 1   
    23    13    15 ar  
    24    13    29 1   
    25    14    18 ar  
    26    15    16 ar  
    27    15    27 1   
    28    16    18 ar  
    29    16    26 1   
    30    18    25 1   
@<TRIPOS>SUBSTRUCTURE
     1 HKA         1 TEMP              0 ****  ****    0 ROOT
