@<TRIPOS>MOLECULE
HKB
   49    52     1     0     0
SMALL
No Charge or Current Charge


@<TRIPOS>ATOM
      1 C01         -5.7830    -2.3320     0.2150 ca         1 HKB      -0.102000
      2 C02         -5.2020    -2.5300     1.4750 ca         1 HKB      -0.090000
      3 C03         -4.0130    -1.8640     1.8110 ca         1 HKB      -0.069000
      4 C04         -3.3900    -0.9900     0.8890 ca         1 HKB      -0.122600
      5 C05         -3.9770    -0.7900    -0.3850 ca         1 HKB      -0.135600
      6 C06         -5.1750    -1.4690    -0.7090 ca         1 HKB      -0.062000
      7 C07         -2.1120    -0.2850     1.2720 c          1 HKB       0.590300
      8 C08         -1.4790     0.6410     0.2560 ca         1 HKB      -0.123600
      9 C09         -2.0600     0.8450    -1.0240 ca         1 HKB      -0.218600
     10 C10         -3.3440     0.1330    -1.3980 c          1 HKB       0.614300
     11 O01         -3.8560     0.3040    -2.5010 o          1 HKB      -0.569100
     12 O02         -1.6000    -0.4580     2.3730 o          1 HKB      -0.497100
     13 C11         -0.2810     1.3120     0.5950 ca         1 HKB      -0.042000
     14 C12          0.3610     2.1750    -0.3130 ca         1 HKB       0.238000
     15 C13         -0.2230     2.3810    -1.5820 ca         1 HKB       0.092100
     16 C14         -1.4190     1.7240    -1.9320 ca         1 HKB       0.132100
     17 O03         -1.9430     1.9530    -3.1760 oh         1 HKB      -0.566100
     18 O04          0.3630     3.2150    -2.5080 oh         1 HKB      -0.534100
     19 N01          1.5590     2.8310    -0.0000 nu         1 HKB      -0.677100
     20 S            2.7830     2.3780     1.0680 sy         1 HKB       1.145600
     21 O05          3.9190     3.1990     0.6400 o          1 HKB      -0.532000
     22 O            2.1900     2.4960     2.4040 o          1 HKB      -0.532000
     23 C15          3.1120     0.6590     0.6780 ca         1 HKB      -0.389500
     24 C16          3.7590     0.3340    -0.5270 ca         1 HKB       0.043500
     25 C17          3.9980    -1.0110    -0.8480 ca         1 HKB      -0.225500
     26 C18          3.5950    -2.0430     0.0190 ca         1 HKB       0.397000
     27 C19          2.9500    -1.7040     1.2220 ca         1 HKB      -0.225500
     28 C20          2.7070    -0.3620     1.5560 ca         1 HKB       0.043500
     29 N            3.8350    -3.4000    -0.3130 nh         1 HKB      -0.819400
     30 C21          4.9880    -3.7990    -1.1550 c3         1 HKB       0.215100
     31 C            2.9400    -4.4820     0.1630 c3         1 HKB       0.215100
     32 H1          -6.7040    -2.8480    -0.0460 ha         1 HKB       0.122000
     33 H2          -5.6720    -3.1990     2.1930 ha         1 HKB       0.123000
     34 H3          -3.5770    -2.0300     2.7950 ha         1 HKB       0.142000
     35 H4          -5.6420    -1.3290    -1.6830 ha         1 HKB       0.137000
     36 H5           0.1500     1.1620     1.5800 ha         1 HKB       0.173000
     37 H6          -2.7730     1.4090    -3.2410 ho         1 HKB       0.527000
     38 H7          -0.2200     3.1940    -3.3010 ho         1 HKB       0.499000
     39 H8           1.9720     3.3670    -0.7500 hn         1 HKB       0.333000
     40 H9           4.0710     1.1160    -1.2190 ha         1 HKB       0.131000
     41 H10          4.4860    -1.2450    -1.7890 ha         1 HKB       0.117000
     42 H11          2.6400    -2.4790     1.9160 ha         1 HKB       0.117000
     43 H12          2.2080    -0.1290     2.4960 ha         1 HKB       0.131000
     44 H13          5.8560    -3.1570    -0.9500 h1         1 HKB       0.042033
     45 H14          5.2860    -4.8350    -0.9440 h1         1 HKB       0.042033
     46 H15          4.7340    -3.7190    -2.2200 h1         1 HKB       0.042033
     47 H16          1.8990    -4.1350     0.1980 h1         1 HKB       0.042033
     48 H17          2.9780    -5.3460    -0.5150 h1         1 HKB       0.042033
     49 H18          3.2360    -4.8140     1.1670 h1         1 HKB       0.042033
@<TRIPOS>BOND
     1     1     2 ar  
     2     1     6 ar  
     3     1    32 1   
     4     2     3 ar  
     5     2    33 1   
     6     3     4 ar  
     7     3    34 1   
     8     4     5 ar  
     9     4     7 1   
    10     5     6 ar  
    11     5    10 1   
    12     6    35 1   
    13     7     8 1   
    14     7    12 2   
    15     8     9 ar  
    16     8    13 ar  
    17     9    10 1   
    18     9    16 ar  
    19    10    11 2   
    20    13    14 ar  
    21    13    36 1   
    22    14    15 ar  
    23    14    19 1   
    24    15    16 ar  
    25    15    18 1   
    26    16    17 1   
    27    17    37 1   
    28    18    38 1   
    29    19    20 1   
    30    19    39 1   
    31    20    21 2   
    32    20    22 2   
    33    20    23 1   
    34    23    24 ar  
    35    23    28 ar  
    36    24    25 ar  
    37    24    40 1   
    38    25    26 ar  
    39    25    41 1   
    40    26    27 ar  
    41    26    29 1   
    42    27    28 ar  
    43    27    42 1   
    44    28    43 1   
    45    29    30 1   
    46    29    31 1   
    47    30    44 1   
    48    30    45 1   
    49    30    46 1   
    50    31    47 1   
    51    31    48 1   
    52    31    49 1   
@<TRIPOS>SUBSTRUCTURE
     1 HKB         1 TEMP              0 ****  ****    0 ROOT
