@<TRIPOS>MOLECULE
HKB
   49    52     1     0     0
SMALL
bcc


@<TRIPOS>ATOM
      1 C01         -6.1460    -1.9100     0.3970 ca         1 HKB      -0.120000
      2 C02         -6.1770    -1.2420     1.6150 ca         1 HKB      -0.108000
      3 C03         -5.1360    -0.4030     1.9760 ca         1 HKB      -0.087000
      4 C04         -4.0530    -0.2230     1.1210 ca         1 HKB      -0.122600
      5 C05         -4.0220    -0.8970    -0.1050 ca         1 HKB      -0.135600
      6 C06         -5.0720    -1.7390    -0.4610 ca         1 HKB      -0.080000
      7 C07         -2.9510     0.6830     1.5290 c          1 HKB       0.590300
      8 C08         -1.8200     0.8480     0.5960 ca         1 HKB      -0.123600
      9 C09         -1.7970     0.1660    -0.6370 ca         1 HKB      -0.218600
     10 C10         -2.8850    -0.7270    -1.0300 c          1 HKB       0.614300
     11 O01         -2.8570    -1.3230    -2.1030 o          1 HKB      -0.569100
     12 O02         -2.9860     1.2660     2.5950 o          1 HKB      -0.497100
     13 C11         -0.7810     1.6890     0.9390 ca         1 HKB      -0.060000
     14 C12          0.3010     1.8610     0.0790 ca         1 HKB       0.099600
     15 C13          0.3410     1.1970    -1.1410 ca         1 HKB       0.092100
     16 C14         -0.7220     0.3480    -1.5070 ca         1 HKB       0.132100
     17 O03         -0.6040    -0.2530    -2.6870 oh         1 HKB      -0.527100
     18 O04          1.3870     1.3840    -1.9440 oh         1 HKB      -0.495100
     19 N01          1.3730     2.6960     0.4570 nu         1 HKB      -0.643500
     20 S            2.4880     2.0340     1.5380 sy         1 HKB       1.287200
     21 O05          3.5820     2.9900     1.5590 o          1 HKB      -0.602800
     22 O            1.7470     1.7430     2.7530 o          1 HKB      -0.602800
     23 C15          3.0160     0.5290     0.8300 ca         1 HKB      -0.389500
     24 C16          4.0600     0.5230    -0.0910 ca         1 HKB       0.025500
     25 C17          4.4210    -0.6430    -0.7250 ca         1 HKB      -0.243500
     26 C18          3.7340    -1.8540    -0.4750 ca         1 HKB       0.258600
     27 C19          2.6810    -1.8220     0.4670 ca         1 HKB      -0.243500
     28 C20          2.3300    -0.6520     1.1020 ca         1 HKB       0.025500
     29 N            4.0740    -2.9990    -1.1120 nh         1 HKB      -0.681000
     30 C21          5.1470    -3.0030    -2.0820 c3         1 HKB       0.215100
     31 C            3.3580    -4.2250    -0.8350 c3         1 HKB       0.215100
     32 H1          -6.9600    -2.5640     0.1160 ha         1 HKB       0.140000
     33 H2          -7.0140    -1.3770     2.2870 ha         1 HKB       0.141000
     34 H3          -5.1630     0.1150     2.9250 ha         1 HKB       0.160000
     35 H4          -5.0490    -2.2610    -1.4070 ha         1 HKB       0.155000
     36 H5          -0.8020     2.2330     1.8720 ha         1 HKB       0.191000
     37 H6          -1.3910    -0.8300    -2.8130 ho         1 HKB       0.488000
     38 H7           1.3120     0.8590    -2.7510 ho         1 HKB       0.460000
     39 H8           1.8580     3.1270    -0.3250 hn         1 HKB       0.437800
     40 H9           4.6060     1.4300    -0.3190 ha         1 HKB       0.149000
     41 H10          5.2420    -0.6080    -1.4260 ha         1 HKB       0.135000
     42 H11          2.1270    -2.7180     0.7100 ha         1 HKB       0.135000
     43 H12          1.5170    -0.6700     1.8150 ha         1 HKB       0.149000
     44 H13          6.1060    -2.7280    -1.6360 h1         1 HKB       0.042033
     45 H14          5.2490    -4.0010    -2.4960 h1         1 HKB       0.042033
     46 H15          4.9500    -2.3180    -2.9110 h1         1 HKB       0.042033
     47 H16          2.2910    -4.1310    -1.0490 h1         1 HKB       0.042033
     48 H17          3.7520    -5.0190    -1.4620 h1         1 HKB       0.042033
     49 H18          3.4690    -4.5380     0.2070 h1         1 HKB       0.042033
@<TRIPOS>BOND
     1     1     2 ar  
     2     1     6 ar  
     3     1    32 1   
     4     2     3 ar  
     5     2    33 1   
     6     3     4 ar  
     7     3    34 1   
     8     4     5 ar  
     9     4     7 1   
    10     5     6 ar  
    11     5    10 1   
    12     6    35 1   
    13     7     8 1   
    14     7    12 2   
    15     8     9 ar  
    16     8    13 ar  
    17     9    10 1   
    18     9    16 ar  
    19    10    11 2   
    20    13    14 ar  
    21    13    36 1   
    22    14    15 ar  
    23    14    19 1   
    24    15    16 ar  
    25    15    18 1   
    26    16    17 1   
    27    17    37 1   
    28    18    38 1   
    29    19    20 1   
    30    19    39 1   
    31    20    21 2   
    32    20    22 2   
    33    20    23 1   
    34    23    24 ar  
    35    23    28 ar  
    36    24    25 ar  
    37    24    40 1   
    38    25    26 ar  
    39    25    41 1   
    40    26    27 ar  
    41    26    29 1   
    42    27    28 ar  
    43    27    42 1   
    44    28    43 1   
    45    29    30 1   
    46    29    31 1   
    47    30    44 1   
    48    30    45 1   
    49    30    46 1   
    50    31    47 1   
    51    31    48 1   
    52    31    49 1   
@<TRIPOS>SUBSTRUCTURE
     1 HKB         1 TEMP              0 ****  ****    0 ROOT
