@<TRIPOS>MOLECULE
HKC
   43    47     1     0     0
SMALL
bcc


@<TRIPOS>ATOM
      1 C19          6.9470     1.7870     0.0840 c3         1 HKC       0.121700
      2 O2           6.5760     0.4250     0.0370 os         1 HKC      -0.294900
      3 C18          5.2640     0.1270     0.0140 ca         1 HKC       0.111100
      4 C2           4.9620    -1.2550    -0.0530 ca         1 HKC       0.123100
      5 O1           6.0300    -2.0710    -0.0850 os         1 HKC      -0.294900
      6 C1           5.8060    -3.4650    -0.1390 c3         1 HKC       0.121700
      7 C17          4.2420     1.0620     0.0540 ca         1 HKC      -0.162000
      8 C16          2.9250     0.6150     0.0250 ca         1 HKC      -0.031000
      9 C4           2.6190    -0.7460    -0.0430 ca         1 HKC      -0.071300
     10 C3           3.6410    -1.6830    -0.0830 ca         1 HKC      -0.178000
     11 C7           1.6510     1.3020     0.0510 cc         1 HKC      -0.052300
     12 N1           1.1330     2.5360     0.1110 na         1 HKC       0.029400
     13 N2          -0.1980     2.5100     0.1030 nc         1 HKC      -0.513800
     14 C8          -0.5480     1.2260     0.0370 cd         1 HKC       0.390800
     15 C6           0.6020     0.4170     0.0020 cd         1 HKC      -0.268600
     16 C5           1.1220    -0.9850    -0.0640 c5         1 HKC       0.053200
     17 C9          -1.9570     0.8400     0.0110 ca         1 HKC      -0.083500
     18 C15         -2.9710     1.8000     0.0560 ca         1 HKC      -0.114500
     19 C14         -4.3000     1.4280     0.0330 ca         1 HKC      -0.098000
     20 C12         -4.6570     0.0810    -0.0360 ca         1 HKC      -0.146500
     21 C11         -3.6520    -0.8820    -0.0810 ca         1 HKC      -0.098000
     22 C10         -2.3210    -0.5050    -0.0580 ca         1 HKC      -0.114500
     23 C13         -6.0650    -0.2810    -0.0590 cc         1 HKC       0.464000
     24 N6          -6.5760    -1.5150    -0.1100 na         1 HKC      -0.164400
     25 N5          -7.8960    -1.4400    -0.1170 nc         1 HKC      -0.206800
     26 N4          -8.1840    -0.2010    -0.0720 nd         1 HKC      -0.040000
     27 N3          -7.0870     0.5480    -0.0350 nd         1 HKC      -0.389000
     28 H191         6.5820     2.3390    -0.7860 h1         1 HKC       0.040700
     29 H192         6.5850     2.2790     0.9910 h1         1 HKC       0.040700
     30 H193         8.0340     1.8110     0.0830 h1         1 HKC       0.040700
     31 H13          5.2470    -3.8220     0.7300 h1         1 HKC       0.041367
     32 H11          5.2710    -3.7580    -1.0470 h1         1 HKC       0.041367
     33 H12          6.7870    -3.9350    -0.1430 h1         1 HKC       0.041367
     34 H8           4.4530     2.1220     0.1080 ha         1 HKC       0.140000
     35 H1           3.4010    -2.7370    -0.1360 ha         1 HKC       0.142000
     36 H9           1.6100     3.4220     0.1580 hn         1 HKC       0.327700
     37 H2           0.8120    -1.5120    -0.9710 hc         1 HKC       0.069700
     38 H3           0.8020    -1.6000     0.7810 hc         1 HKC       0.069700
     39 H7          -2.7170     2.8500     0.1100 ha         1 HKC       0.147000
     40 H6          -5.0680     2.1890     0.0690 ha         1 HKC       0.141000
     41 H5          -3.8850    -1.9380    -0.1370 ha         1 HKC       0.141000
     42 H4          -1.5630    -1.2760    -0.0930 ha         1 HKC       0.147000
     43 H10         -6.1190    -2.4160    -0.1420 hn         1 HKC       0.334700
@<TRIPOS>BOND
     1     1     2 1   
     2     1    28 1   
     3     1    29 1   
     4     1    30 1   
     5     2     3 1   
     6     3     4 ar  
     7     3     7 ar  
     8     4     5 1   
     9     4    10 ar  
    10     5     6 1   
    11     6    31 1   
    12     6    32 1   
    13     6    33 1   
    14     7     8 ar  
    15     7    34 1   
    16     8     9 ar  
    17     8    11 1   
    18     9    10 ar  
    19     9    16 1   
    20    10    35 1   
    21    11    12 1   
    22    11    15 2   
    23    12    13 1   
    24    12    36 1   
    25    13    14 2   
    26    14    15 1   
    27    14    17 1   
    28    15    16 1   
    29    16    37 1   
    30    16    38 1   
    31    17    18 ar  
    32    17    22 ar  
    33    18    19 ar  
    34    18    39 1   
    35    19    20 ar  
    36    19    40 1   
    37    20    21 ar  
    38    20    23 1   
    39    21    22 ar  
    40    21    41 1   
    41    22    42 1   
    42    23    24 1   
    43    23    27 2   
    44    24    25 1   
    45    24    43 1   
    46    25    26 2   
    47    26    27 1   
@<TRIPOS>SUBSTRUCTURE
     1 HKC         1 TEMP              0 ****  ****    0 ROOT
