@<TRIPOS>MOLECULE
HKC
   43    47     1     0     0
SMALL
No Charge or Current Charge


@<TRIPOS>ATOM
      1 C19          7.0290     1.8650     0.0390 c3         1 HKC       0.144900
      2 O2           6.6130     0.4880     0.0430 os         1 HKC      -0.318100
      3 C18          5.2790     0.1140     0.0120 ca         1 HKC       0.111100
      4 C2           4.9610    -1.2750     0.0180 ca         1 HKC       0.123100
      5 O1           6.0030    -2.1880     0.0550 os         1 HKC      -0.318100
      6 C1           5.7850    -3.6100     0.0650 c3         1 HKC       0.144900
      7 C17          4.2400     1.0770    -0.0250 ca         1 HKC      -0.144000
      8 C16          2.9220     0.6140    -0.0560 ca         1 HKC      -0.031000
      9 C4           2.5920    -0.7300    -0.0480 ca         1 HKC      -0.071300
     10 C3           3.6060    -1.6980    -0.0110 ca         1 HKC      -0.160000
     11 C7           1.6880     1.3250    -0.0900 cc         1 HKC      -0.103000
     12 N1           1.2090     2.6170    -0.0500 na         1 HKC       0.029800
     13 N2          -0.1910     2.6240    -0.0340 nc         1 HKC      -0.513800
     14 C8          -0.5290     1.3280    -0.0580 cd         1 HKC       0.325500
     15 C6           0.6270     0.5050    -0.0900 cd         1 HKC      -0.203300
     16 C5           1.0700    -0.9680    -0.0810 c5         1 HKC       0.053200
     17 C9          -1.9460     0.8920    -0.0180 ca         1 HKC      -0.083500
     18 C15         -2.9690     1.7980     0.3360 ca         1 HKC      -0.096500
     19 C14         -4.3160     1.3960     0.3520 ca         1 HKC      -0.080000
     20 C12         -4.6810     0.0780     0.0040 ca         1 HKC      -0.146500
     21 C11         -3.6610    -0.8240    -0.3680 ca         1 HKC      -0.080000
     22 C10         -2.3150    -0.4200    -0.3830 ca         1 HKC      -0.096500
     23 C13         -6.0940    -0.3310     0.0240 cc         1 HKC       0.464000
     24 N6          -6.5830    -1.5680    -0.2840 na         1 HKC      -0.214700
     25 N5          -7.9340    -1.5920    -0.1590 nc         1 HKC      -0.206800
     26 N4          -8.2470    -0.3830     0.2180 nd         1 HKC      -0.040000
     27 N3          -7.1340     0.4170     0.3400 nd         1 HKC      -0.389000
     28 H191         6.6810     2.3750    -0.8680 h1         1 HKC       0.040700
     29 H192         6.6340     2.3940     0.9160 h1         1 HKC       0.040700
     30 H193         8.1240     1.9310     0.0670 h1         1 HKC       0.040700
     31 H13          5.2030    -3.9090     0.9460 h1         1 HKC       0.041367
     32 H11          5.2490    -3.9280    -0.8380 h1         1 HKC       0.041367
     33 H12          6.7440    -4.1410     0.0950 h1         1 HKC       0.041367
     34 H8           4.4350     2.1450    -0.0300 ha         1 HKC       0.122000
     35 H1           3.3320    -2.7490    -0.0060 ha         1 HKC       0.124000
     36 H9           1.7590     3.4740    -0.0260 hn         1 HKC       0.378000
     37 H2           0.7590    -1.5140    -0.9790 hc         1 HKC       0.069700
     38 H3           0.7100    -1.5150     0.7970 hc         1 HKC       0.069700
     39 H7          -2.7260     2.8220     0.6090 ha         1 HKC       0.129000
     40 H6          -5.0760     2.1210     0.6380 ha         1 HKC       0.123000
     41 H5          -3.8990    -1.8460    -0.6530 ha         1 HKC       0.123000
     42 H4          -1.5620    -1.1390    -0.6900 ha         1 HKC       0.129000
     43 H10         -6.0500    -2.3800    -0.5680 hn         1 HKC       0.385000
@<TRIPOS>BOND
     1     1     2 1   
     2     1    28 1   
     3     1    29 1   
     4     1    30 1   
     5     2     3 1   
     6     3     4 ar  
     7     3     7 ar  
     8     4     5 1   
     9     4    10 ar  
    10     5     6 1   
    11     6    31 1   
    12     6    32 1   
    13     6    33 1   
    14     7     8 ar  
    15     7    34 1   
    16     8     9 ar  
    17     8    11 1   
    18     9    10 ar  
    19     9    16 1   
    20    10    35 1   
    21    11    12 1   
    22    11    15 2   
    23    12    13 1   
    24    12    36 1   
    25    13    14 2   
    26    14    15 1   
    27    14    17 1   
    28    15    16 1   
    29    16    37 1   
    30    16    38 1   
    31    17    18 ar  
    32    17    22 ar  
    33    18    19 ar  
    34    18    39 1   
    35    19    20 ar  
    36    19    40 1   
    37    20    21 ar  
    38    20    23 1   
    39    21    22 ar  
    40    21    41 1   
    41    22    42 1   
    42    23    24 1   
    43    23    27 2   
    44    24    25 1   
    45    24    43 1   
    46    25    26 2   
    47    26    27 1   
@<TRIPOS>SUBSTRUCTURE
     1 HKC         1 TEMP              0 ****  ****    0 ROOT
