@<TRIPOS>MOLECULE
HKD
   21    21     1     0     0
SMALL
No Charge or Current Charge


@<TRIPOS>ATOM
      1 OAA         -2.9920    -1.7570     0.0240 o          1 HKD      -0.702000
      2 CAC         -2.7010    -0.5680     0.0190 c          1 HKD       0.710200
      3 OAD         -3.6050     0.2530     0.0230 o          1 HKD      -0.702000
      4 CAF         -1.2170    -0.1540     0.0090 cc         1 HKD      -0.091200
      5 CAG         -0.3080    -1.3010     0.0070 cc         1 HKD      -0.121000
      6 CAH          1.0610    -1.4020    -0.0020 cd         1 HKD       0.007900
      7 OAI          1.6420    -2.6310    -0.0020 oh         1 HKD      -0.548100
      8 CAL          2.0900    -0.3430    -0.0110 c          1 HKD       0.474500
      9 OAM          3.2820    -0.6740    -0.0170 o          1 HKD      -0.698100
     10 CAK          1.7480     1.0930    -0.0120 cc         1 HKD      -0.003100
     11 OAN          2.8810     1.8400    -0.0210 oh         1 HKD      -0.559100
     12 CAJ          0.5290     1.7290    -0.0060 cd         1 HKD      -0.148000
     13 CAE         -0.8340     1.2160     0.0030 cd         1 HKD      -0.052200
     14 CAB         -1.8520     2.3560     0.0070 c3         1 HKD      -0.043900
     15 H2          -0.7740    -2.2800     0.0120 ha         1 HKD       0.208000
     16 H3           2.6130    -2.4310    -0.0090 ho         1 HKD       0.481000
     17 H4           3.6050     1.1620    -0.0240 ho         1 HKD       0.484000
     18 H5           0.6310     2.8100    -0.0100 ha         1 HKD       0.172000
     19 H6          -1.4010     3.3540     0.0020 hc         1 HKD       0.043367
     20 H7          -2.4930     2.3210    -0.8820 hc         1 HKD       0.043367
     21 H8          -2.4820     2.3250     0.9040 hc         1 HKD       0.043367
@<TRIPOS>BOND
     1     1     2 1   
     2     2     3 1   
     3     2     4 1   
     4     4     5 1   
     5     4    13 2   
     6     5     6 2   
     7     5    15 1   
     8     6     7 1   
     9     6     8 1   
    10     7    16 1   
    11     8     9 2   
    12     8    10 1   
    13    10    11 1   
    14    10    12 2   
    15    11    17 1   
    16    12    13 1   
    17    12    18 1   
    18    13    14 1   
    19    14    19 1   
    20    14    20 1   
    21    14    21 1   
@<TRIPOS>SUBSTRUCTURE
     1 HKD         1 TEMP              0 ****  ****    0 ROOT
