@<TRIPOS>MOLECULE
HKD
   21    21     1     0     0
SMALL
abcg2


@<TRIPOS>ATOM
      1 OAA         -3.0560    -1.1880    -0.8980 o          1 HKD      -0.702000
      2 CAC         -2.6480    -0.4950     0.0490 c          1 HKD       0.710200
      3 OAD         -3.2860    -0.0870     1.0320 o          1 HKD      -0.702000
      4 CAF         -1.1620    -0.1270     0.0120 cc         1 HKD      -0.091200
      5 CAG         -0.3110    -1.2410     0.0190 cc         1 HKD      -0.121000
      6 CAH          1.0570    -1.3570     0.0750 cd         1 HKD       0.007900
      7 OAI          1.5610    -2.5960     0.1310 oh         1 HKD      -0.548100
      8 CAL          2.0630    -0.3350     0.0630 c          1 HKD       0.474500
      9 OAM          3.2680    -0.6750     0.1040 o          1 HKD      -0.698100
     10 CAK          1.7480     1.0620    -0.0220 cc         1 HKD      -0.003100
     11 OAN          2.8330     1.8450    -0.0510 oh         1 HKD      -0.559100
     12 CAJ          0.5270     1.6910    -0.0800 cd         1 HKD      -0.148000
     13 CAE         -0.7890     1.2100    -0.0420 cd         1 HKD      -0.052200
     14 CAB         -1.8660     2.2670    -0.0830 c3         1 HKD      -0.043900
     15 H2          -0.8170    -2.2010    -0.0030 ha         1 HKD       0.208000
     16 H3           2.5300    -2.5060     0.1500 ho         1 HKD       0.481000
     17 H4           3.6050     1.2530    -0.0030 ho         1 HKD       0.484000
     18 H5           0.6190     2.7700    -0.1550 ha         1 HKD       0.172000
     19 H6          -1.4490     3.2450    -0.3150 hc         1 HKD       0.043367
     20 H7          -2.6200     2.0470    -0.8400 hc         1 HKD       0.043367
     21 H8          -2.3840     2.3370     0.8720 hc         1 HKD       0.043367
@<TRIPOS>BOND
     1     1     2 1   
     2     2     3 1   
     3     2     4 1   
     4     4     5 1   
     5     4    13 2   
     6     5     6 2   
     7     5    15 1   
     8     6     7 1   
     9     6     8 1   
    10     7    16 1   
    11     8     9 2   
    12     8    10 1   
    13    10    11 1   
    14    10    12 2   
    15    11    17 1   
    16    12    13 1   
    17    12    18 1   
    18    13    14 1   
    19    14    19 1   
    20    14    20 1   
    21    14    21 1   
@<TRIPOS>SUBSTRUCTURE
     1 HKD         1 TEMP              0 ****  ****    0 ROOT
