@<TRIPOS>MOLECULE
HKE
   41    42     1     0     0
SMALL
bcc


@<TRIPOS>ATOM
      1 C2          -1.9150    -1.6010    -0.1320 ca         1 HKE       0.030400
      2 C3          -0.6760    -1.0500    -0.4590 ca         1 HKE       0.065600
      3 C13          1.3570    -1.5930     0.8580 c3         1 HKE       0.063700
      4 C15          1.1890    -2.9820     0.2640 c3         1 HKE      -0.098100
      5 C19          2.7120    -0.9880     0.4980 c          1 HKE       0.642100
      6 C22          3.9340     1.0580     0.3420 c3         1 HKE       0.158100
      7 C24          4.2400     1.2170    -1.1360 c3         1 HKE      -0.105600
      8 C28          3.7320     2.3890     1.0370 c3         1 HKE      -0.105600
      9 CL1         -2.3070    -1.8640     1.5290 cl         1 HKE      -0.080900
     10 C4          -0.3810    -0.8980    -1.8110 ca         1 HKE       0.030400
     11 C5          -1.2800    -1.2580    -2.8000 ca         1 HKE      -0.117500
     12 C7          -2.5120    -1.7770    -2.4370 ca         1 HKE      -0.111000
     13 C9          -2.8380    -1.9520    -1.1030 ca         1 HKE      -0.117500
     14 CL2          1.1450    -0.2410    -2.2640 cl         1 HKE      -0.080900
     15 N12          0.2440    -0.6900     0.5480 n          1 HKE      -0.384000
     16 O20          3.6870    -1.6680     0.2890 o          1 HKE      -0.548000
     17 O21          2.7030     0.3250     0.5280 os         1 HKE      -0.406900
     18 C32         -0.0450     0.3030     1.4500 c          1 HKE       0.632600
     19 O33          0.4960     0.3750     2.5380 o          1 HKE      -0.562100
     20 C34         -1.0340     1.3240     1.0790 cc         1 HKE       0.167200
     21 O35         -1.3690     1.5590    -0.2070 os         1 HKE      -0.302800
     22 C36         -2.2610     2.5600    -0.2160 cc         1 HKE       0.251600
     23 C38         -2.5140     2.9830     1.0480 cd         1 HKE      -0.286300
     24 C40         -1.7060     2.1810     1.8960 cd         1 HKE      -0.190300
     25 H1           1.3800    -1.7110     1.9470 h1         1 HKE       0.097700
     26 H2           0.2380    -3.4170     0.5680 hc         1 HKE       0.056700
     27 H3           1.2450    -2.9940    -0.8240 hc         1 HKE       0.056700
     28 H4           1.9760    -3.6290     0.6450 hc         1 HKE       0.056700
     29 H5           4.7440     0.5100     0.8290 h1         1 HKE       0.060700
     30 H6           3.4450     1.7630    -1.6450 hc         1 HKE       0.047367
     31 H7           5.1630     1.7860    -1.2520 hc         1 HKE       0.047367
     32 H8           4.3790     0.2570    -1.6310 hc         1 HKE       0.047367
     33 H9           3.5020     2.2550     2.0940 hc         1 HKE       0.047367
     34 H10          4.6440     2.9810     0.9630 hc         1 HKE       0.047367
     35 H11          2.9220     2.9580     0.5770 hc         1 HKE       0.047367
     36 H12         -1.0220    -1.1280    -3.8410 ha         1 HKE       0.154000
     37 H13         -3.2240    -2.0530    -3.2040 ha         1 HKE       0.143000
     38 H14         -3.7930    -2.3690    -0.8170 ha         1 HKE       0.154000
     39 H15         -2.6270     2.8710    -1.1810 h4         1 HKE       0.054100
     40 H16         -3.1890     3.7710     1.3380 ha         1 HKE       0.164000
     41 H17         -1.6380     2.2260     2.9700 ha         1 HKE       0.174000
@<TRIPOS>BOND
     1     1     2 ar  
     2     1     9 1   
     3     1    13 ar  
     4     2    10 ar  
     5     2    15 1   
     6     3     4 1   
     7     3     5 1   
     8     3    15 1   
     9     3    25 1   
    10     4    26 1   
    11     4    27 1   
    12     4    28 1   
    13     5    16 2   
    14     5    17 1   
    15     6     7 1   
    16     6     8 1   
    17     6    17 1   
    18     6    29 1   
    19     7    30 1   
    20     7    31 1   
    21     7    32 1   
    22     8    33 1   
    23     8    34 1   
    24     8    35 1   
    25    10    11 ar  
    26    10    14 1   
    27    11    12 ar  
    28    11    36 1   
    29    12    13 ar  
    30    12    37 1   
    31    13    38 1   
    32    15    18 1   
    33    18    19 2   
    34    18    20 1   
    35    20    21 1   
    36    20    24 2   
    37    21    22 1   
    38    22    23 2   
    39    22    39 1   
    40    23    24 1   
    41    23    40 1   
    42    24    41 1   
@<TRIPOS>SUBSTRUCTURE
     1 HKE         1 TEMP              0 ****  ****    0 ROOT
