@<TRIPOS>MOLECULE
HKE
   41    42     1     0     0
SMALL
No Charge or Current Charge


@<TRIPOS>ATOM
      1 C2          -1.9420    -1.8250    -0.1830 ca         1 HKE       0.122000
      2 C3          -0.7400    -1.1640    -0.5280 ca         1 HKE      -0.027000
      3 C13          1.3440    -1.4600     0.8710 c3         1 HKE       0.063700
      4 C15          1.2050    -2.9750     0.5490 c3         1 HKE      -0.098100
      5 C19          2.6520    -0.8840     0.2590 c          1 HKE       0.593100
      6 C22          4.2550     0.9320     0.4720 c3         1 HKE       0.181300
      7 C24          3.9490     1.6830    -0.8430 c3         1 HKE      -0.105600
      8 C28          4.6510     1.8900     1.6100 c3         1 HKE      -0.105600
      9 Cl1         -2.3620    -2.1130     1.5070 cl         1 HKE      -0.172500
     10 C4          -0.4860    -0.8820    -1.8910 ca         1 HKE       0.122000
     11 C5          -1.3730    -1.3280    -2.8860 ca         1 HKE      -0.099500
     12 C7          -2.5360    -2.0310    -2.5350 ca         1 HKE      -0.093000
     13 C9          -2.8240    -2.2690    -1.1810 ca         1 HKE      -0.099500
     14 Cl2          0.9100     0.0720    -2.3820 cl         1 HKE      -0.172500
     15 N12          0.1220    -0.6550     0.5120 n          1 HKE      -0.224400
     16 O20          3.3190    -1.4550    -0.5980 o          1 HKE      -0.499000
     17 O21          3.0620     0.2550     0.9060 os         1 HKE      -0.430100
     18 C32         -0.1440     0.5460     1.2430 c          1 HKE       0.565600
     19 O33          0.5150     0.8400     2.2360 o          1 HKE      -0.562100
     20 C34         -1.2610     1.4350     0.7760 cc         1 HKE       0.057500
     21 O35         -2.0490     1.2470    -0.3440 os         1 HKE      -0.214000
     22 C36         -2.9320     2.3010    -0.4040 cc         1 HKE       0.141900
     23 C38         -2.7050     3.1420     0.6500 cd         1 HKE      -0.203000
     24 C40         -1.6430     2.5960     1.4000 cd         1 HKE      -0.107000
     25 H1           1.4810    -1.3920     1.9570 h1         1 HKE       0.097700
     26 H2           0.3250    -3.3990     1.0460 hc         1 HKE       0.056700
     27 H3           1.1140    -3.1500    -0.5300 hc         1 HKE       0.056700
     28 H4           2.0840    -3.5240     0.9070 hc         1 HKE       0.056700
     29 H5           5.0800     0.2230     0.3130 h1         1 HKE       0.060700
     30 H6           3.0670     2.3250    -0.7300 hc         1 HKE       0.047367
     31 H7           4.7990     2.3150    -1.1280 hc         1 HKE       0.047367
     32 H8           3.7680     0.9830    -1.6660 hc         1 HKE       0.047367
     33 H9           4.8490     1.3290     2.5310 hc         1 HKE       0.047367
     34 H10          5.5590     2.4450     1.3480 hc         1 HKE       0.047367
     35 H11          3.8500     2.6120     1.8100 hc         1 HKE       0.047367
     36 H12         -1.1640    -1.1130    -3.9310 ha         1 HKE       0.136000
     37 H13         -3.2230    -2.3720    -3.3070 ha         1 HKE       0.125000
     38 H14         -3.7370    -2.7910    -0.9040 ha         1 HKE       0.136000
     39 H15         -3.6410     2.3280    -1.2200 h4         1 HKE       0.054100
     40 H16         -3.2460     4.0590     0.8620 ha         1 HKE       0.146000
     41 H17         -1.2040     3.0120     2.3020 ha         1 HKE       0.156000
@<TRIPOS>BOND
     1     1     2 ar  
     2     1     9 1   
     3     1    13 ar  
     4     2    10 ar  
     5     2    15 1   
     6     3     4 1   
     7     3     5 1   
     8     3    15 1   
     9     3    25 1   
    10     4    26 1   
    11     4    27 1   
    12     4    28 1   
    13     5    16 2   
    14     5    17 1   
    15     6     7 1   
    16     6     8 1   
    17     6    17 1   
    18     6    29 1   
    19     7    30 1   
    20     7    31 1   
    21     7    32 1   
    22     8    33 1   
    23     8    34 1   
    24     8    35 1   
    25    10    11 ar  
    26    10    14 1   
    27    11    12 ar  
    28    11    36 1   
    29    12    13 ar  
    30    12    37 1   
    31    13    38 1   
    32    15    18 1   
    33    18    19 2   
    34    18    20 1   
    35    20    21 1   
    36    20    24 2   
    37    21    22 1   
    38    22    23 2   
    39    22    39 1   
    40    23    24 1   
    41    23    40 1   
    42    24    41 1   
@<TRIPOS>SUBSTRUCTURE
     1 HKE         1 TEMP              0 ****  ****    0 ROOT
