@<TRIPOS>MOLECULE
HKG
   61    65     1     0     0
SMALL
No Charge or Current Charge


@<TRIPOS>ATOM
      1 C18          3.2230    -0.9980    -0.1180 cc         1 HKG       0.613300
      2 N5          -1.7040    -0.9840    -0.5460 nb         1 HKG      -0.752000
      3 C13         -3.1030     6.2350    -0.5300 ca         1 HKG       0.318900
      4 C12         -3.0540     5.2300    -1.5130 ca         1 HKG      -0.136000
      5 C16          1.1360    -0.5120    -0.1550 cd         1 HKG       0.646300
      6 C15         -2.1850     4.8220     1.0680 ca         1 HKG       0.349300
      7 C11         -2.5460     3.9620    -1.1790 ca         1 HKG      -0.137000
      8 C10         -2.1110     3.7500     0.1440 ca         1 HKG       0.058100
      9 C22          5.3130    -1.5030     1.2240 c6         1 HKG      -0.093400
     10 C6          -3.0380    -1.1440    -0.7010 ca         1 HKG       0.443900
     11 C1          -3.9710    -0.1130    -0.4620 ca         1 HKG      -0.212000
     12 C4          -1.2680     0.2160    -0.1460 ca         1 HKG       0.623900
     13 C21          4.6800    -0.6330     0.1140 c6         1 HKG      -0.079000
     14 C2          -3.5020     1.1450    -0.0490 ca         1 HKG       0.011000
     15 C3          -2.1160     1.3200     0.1060 ca         1 HKG      -0.012900
     16 N7           0.0930     0.3230     0.0010 nu         1 HKG      -0.867800
     17 O9          -1.5900     2.5300     0.5270 os         1 HKG      -0.238200
     18 N14         -2.6750     6.0440     0.7410 nb         1 HKG      -0.652000
     19 N17          2.3030    -0.0000     0.0950 nc         1 HKG      -0.749000
     20 N19          2.8460    -2.2140    -0.5070 nd         1 HKG      -0.562100
     21 S20          1.1800    -2.1990    -0.6450 ss         1 HKG       0.151700
     22 C23          6.7900    -1.1210     1.4800 c6         1 HKG       0.098000
     23 N24          7.6430    -1.0430     0.2500 n          1 HKG      -0.413800
     24 C25          6.9960    -0.4090    -0.9400 c6         1 HKG       0.098000
     25 C26          5.5210    -0.8070    -1.1710 c6         1 HKG      -0.093400
     26 C27         -5.9600    -1.9930     0.0610 ca         1 HKG       0.453300
     27 N28         -5.3190    -2.2540     1.2250 nb         1 HKG      -0.678000
     28 C29         -5.4960    -3.4710     1.7870 ca         1 HKG       0.350900
     29 C30         -6.3110    -4.4640     1.2190 ca         1 HKG      -0.166000
     30 C31         -6.9800    -4.1940     0.0150 ca         1 HKG      -0.061000
     31 C32         -6.7980    -2.9300    -0.5690 ca         1 HKG      -0.148000
     32 C33          9.0540    -1.0060     0.3600 c          1 HKG       0.608100
     33 C34          9.7220    -1.6380     1.5840 c3         1 HKG      -0.176100
     34 O35          9.7450    -0.5320    -0.5340 o          1 HKG      -0.608100
     35 H1          -3.4910     7.2250    -0.7680 h4         1 HKG       0.025100
     36 H2          -3.4040     5.4400    -2.5200 ha         1 HKG       0.127000
     37 H3          -2.4880     3.1740    -1.9260 ha         1 HKG       0.130000
     38 H4           4.7420    -1.4000     2.1570 hc         1 HKG       0.060450
     39 H5           5.2630    -2.5650     0.9450 hc         1 HKG       0.060450
     40 H6          -3.3670    -2.1280    -1.0340 h4         1 HKG       0.042100
     41 H7           4.7440     0.4190     0.4250 hc         1 HKG       0.070700
     42 H8          -4.1980     1.9570     0.1510 ha         1 HKG       0.148000
     43 H9           0.4030     1.2370     0.2990 hn         1 HKG       0.537000
     44 H10          6.8210    -0.1420     1.9800 h1         1 HKG       0.054450
     45 H11          7.2020    -1.8550     2.1840 h1         1 HKG       0.054450
     46 H12          7.0540     0.6830    -0.8210 h1         1 HKG       0.054450
     47 H13          7.5660    -0.6630    -1.8460 h1         1 HKG       0.054450
     48 H14          5.4810    -1.8520    -1.5100 hc         1 HKG       0.060450
     49 H15          5.1000    -0.2000    -1.9850 hc         1 HKG       0.060450
     50 H16         -4.9670    -3.6550     2.7210 h4         1 HKG       0.023100
     51 H17         -6.4190    -5.4270     1.7110 ha         1 HKG       0.128000
     52 H18         -7.6210    -4.9400    -0.4510 ha         1 HKG       0.123000
     53 H19         -7.2960    -2.6740    -1.5000 ha         1 HKG       0.134000
     54 H20          9.3120    -2.6410     1.7430 hc         1 HKG       0.059033
     55 H21         10.8150    -1.6580     1.5010 hc         1 HKG       0.059033
     56 H22          9.4080    -1.0990     2.4840 hc         1 HKG       0.059033
     57 H23         -2.2660     3.8460     3.0000 hc         1 HKG       0.055367
     58 H24         -0.6500     4.4080     2.5380 hc         1 HKG       0.055367
     59 H25         -1.8660     5.5680     3.0950 hc         1 HKG       0.055367
     60 S8          -5.7350    -0.3760    -0.6870 ss         1 HKG      -0.139300
     61 C36         -1.7170     4.6560     2.5050 c3         1 HKG      -0.138400
@<TRIPOS>BOND
     1     1    13 1   
     2     1    19 1   
     3     1    20 2   
     4     2    10 ar  
     5     2    12 ar  
     6     3     4 ar  
     7     3    18 ar  
     8     3    35 1   
     9     4     7 ar  
    10     4    36 1   
    11     5    16 1   
    12     5    19 2   
    13     5    21 1   
    14     6     8 ar  
    15     6    18 ar  
    16     6    61 1   
    17     7     8 ar  
    18     7    37 1   
    19     8    17 1   
    20     9    13 1   
    21     9    22 1   
    22     9    38 1   
    23     9    39 1   
    24    10    11 ar  
    25    10    40 1   
    26    11    14 ar  
    27    11    60 1   
    28    12    15 ar  
    29    12    16 1   
    30    13    25 1   
    31    13    41 1   
    32    14    15 ar  
    33    14    42 1   
    34    15    17 1   
    35    16    43 1   
    36    20    21 1   
    37    22    23 1   
    38    22    44 1   
    39    22    45 1   
    40    23    24 1   
    41    23    32 1   
    42    24    25 1   
    43    24    46 1   
    44    24    47 1   
    45    25    48 1   
    46    25    49 1   
    47    26    27 ar  
    48    26    31 ar  
    49    26    60 1   
    50    27    28 ar  
    51    28    29 ar  
    52    28    50 1   
    53    29    30 ar  
    54    29    51 1   
    55    30    31 ar  
    56    30    52 1   
    57    31    53 1   
    58    32    33 1   
    59    32    34 2   
    60    33    54 1   
    61    33    55 1   
    62    33    56 1   
    63    57    61 1   
    64    58    61 1   
    65    59    61 1   
@<TRIPOS>SUBSTRUCTURE
     1 HKG         1 TEMP              0 ****  ****    0 ROOT
