@<TRIPOS>MOLECULE
HKG
   61    65     1     0     0
SMALL
bcc


@<TRIPOS>ATOM
      1 C18          3.4750    -0.3230    -0.1860 cc         1 HKG       0.613300
      2 N5          -1.0870    -1.0140    -1.0040 nb         1 HKG      -0.752000
      3 C13         -2.5720     5.6300    -0.5160 ca         1 HKG       0.384200
      4 C12         -2.5050     4.6240    -1.4610 ca         1 HKG      -0.219300
      5 C16          1.3250    -0.0320    -0.1560 cd         1 HKG       0.646300
      6 C15         -2.4000     4.1510     1.2320 ca         1 HKG       0.414600
      7 C11         -2.3780     3.3110    -1.0280 ca         1 HKG      -0.155000
      8 C10         -2.3280     3.0790     0.3340 ca         1 HKG      -0.007200
      9 C22          5.4350    -1.0690     1.1700 c6         1 HKG      -0.093400
     10 C6          -2.2440    -1.5210    -1.4150 ca         1 HKG       0.509200
     11 C1          -3.4610    -0.9430    -1.1040 ca         1 HKG      -0.150400
     12 C4          -1.0810     0.0740    -0.2620 ca         1 HKG       0.689200
     13 C21          4.8840    -0.0070     0.2120 c6         1 HKG      -0.079000
     14 C2          -3.4630     0.2190    -0.3310 ca         1 HKG      -0.007000
     15 C3          -2.2660     0.7340     0.1020 ca         1 HKG      -0.078200
     16 N7           0.1370     0.5420     0.1550 nu         1 HKG      -0.812600
     17 O9          -2.1890     1.8390     0.8970 os         1 HKG      -0.238200
     18 N14         -2.5210     5.3950     0.7920 nb         1 HKG      -0.652000
     19 N17          2.4540     0.4400     0.2910 nc         1 HKG      -0.749000
     20 N19          3.1970    -1.3310    -0.9590 nd         1 HKG      -0.562100
     21 S20          1.5460    -1.4210    -1.1600 ss         1 HKG       0.151700
     22 C23          6.8720    -0.7460     1.5590 c6         1 HKG       0.098000
     23 N24          7.7040    -0.6040     0.3780 n          1 HKG      -0.480800
     24 C25          7.2380     0.4240    -0.5370 c6         1 HKG       0.098000
     25 C26          5.8140     0.1370    -0.9940 c6         1 HKG      -0.093400
     26 C27         -5.7360    -2.2630    -0.2830 ca         1 HKG       0.518600
     27 N28         -5.1540    -2.1030     0.8860 nb         1 HKG      -0.678000
     28 C29         -5.7790    -2.5710     1.9650 ca         1 HKG       0.416200
     29 C30         -7.0040    -3.2130     1.9150 ca         1 HKG      -0.249300
     30 C31         -7.6050    -3.3770     0.6720 ca         1 HKG      -0.079000
     31 C32         -6.9670    -2.8950    -0.4550 ca         1 HKG      -0.231300
     32 C33          8.7320    -1.4190     0.0510 c          1 HKG       0.675100
     33 C34          9.1050    -2.4990     1.0400 c3         1 HKG      -0.176100
     34 O35          9.3530    -1.2930    -0.9990 o          1 HKG      -0.608100
     35 H1          -2.6710     6.6650    -0.8180 h4         1 HKG       0.025100
     36 H2          -2.5480     4.8520    -2.5170 ha         1 HKG       0.145000
     37 H3          -2.3250     2.5050    -1.7480 ha         1 HKG       0.148000
     38 H4           4.8220    -1.1210     2.0730 hc         1 HKG       0.060450
     39 H5           5.3980    -2.0520     0.6930 hc         1 HKG       0.060450
     40 H6          -2.1930    -2.4220    -2.0140 h4         1 HKG       0.042100
     41 H7           4.8580     0.9500     0.7450 hc         1 HKG       0.070700
     42 H8          -4.3910     0.7120    -0.0720 ha         1 HKG       0.166000
     43 H9           0.1770     1.3320     0.7840 hn         1 HKG       0.481800
     44 H10          6.8980     0.1930     2.1220 h1         1 HKG       0.054450
     45 H11          7.2640    -1.5140     2.2170 h1         1 HKG       0.054450
     46 H12          7.2710     1.3890    -0.0200 h1         1 HKG       0.054450
     47 H13          7.9130     0.4830    -1.3850 h1         1 HKG       0.054450
     48 H14          5.7960    -0.7790    -1.5900 hc         1 HKG       0.060450
     49 H15          5.4740     0.9500    -1.6380 hc         1 HKG       0.060450
     50 H16         -5.2730    -2.4220     2.9110 h4         1 HKG       0.023100
     51 H17         -7.4710    -3.5710     2.8210 ha         1 HKG       0.146000
     52 H18         -8.5620    -3.8740     0.5820 ha         1 HKG       0.141000
     53 H19         -7.4080    -3.0060    -1.4370 ha         1 HKG       0.152000
     54 H20          8.2940    -3.2150     1.1830 hc         1 HKG       0.059033
     55 H21          9.9710    -3.0370     0.6630 hc         1 HKG       0.059033
     56 H22          9.3550    -2.0890     2.0180 hc         1 HKG       0.059033
     57 H23         -3.1180     3.2370     3.0460 hc         1 HKG       0.055367
     58 H24         -1.3810     3.4800     3.0040 hc         1 HKG       0.055367
     59 H25         -2.4530     4.8630     3.2370 hc         1 HKG       0.055367
     60 S8          -4.9470    -1.6300    -1.7450 ss         1 HKG      -0.266200
     61 C36         -2.3360     3.9190     2.7100 c3         1 HKG      -0.138400
@<TRIPOS>BOND
     1     1    13 1   
     2     1    19 1   
     3     1    20 2   
     4     2    10 ar  
     5     2    12 ar  
     6     3     4 ar  
     7     3    18 ar  
     8     3    35 1   
     9     4     7 ar  
    10     4    36 1   
    11     5    16 1   
    12     5    19 2   
    13     5    21 1   
    14     6     8 ar  
    15     6    18 ar  
    16     6    61 1   
    17     7     8 ar  
    18     7    37 1   
    19     8    17 1   
    20     9    13 1   
    21     9    22 1   
    22     9    38 1   
    23     9    39 1   
    24    10    11 ar  
    25    10    40 1   
    26    11    14 ar  
    27    11    60 1   
    28    12    15 ar  
    29    12    16 1   
    30    13    25 1   
    31    13    41 1   
    32    14    15 ar  
    33    14    42 1   
    34    15    17 1   
    35    16    43 1   
    36    20    21 1   
    37    22    23 1   
    38    22    44 1   
    39    22    45 1   
    40    23    24 1   
    41    23    32 1   
    42    24    25 1   
    43    24    46 1   
    44    24    47 1   
    45    25    48 1   
    46    25    49 1   
    47    26    27 ar  
    48    26    31 ar  
    49    26    60 1   
    50    27    28 ar  
    51    28    29 ar  
    52    28    50 1   
    53    29    30 ar  
    54    29    51 1   
    55    30    31 ar  
    56    30    52 1   
    57    31    53 1   
    58    32    33 1   
    59    32    34 2   
    60    33    54 1   
    61    33    55 1   
    62    33    56 1   
    63    57    61 1   
    64    58    61 1   
    65    59    61 1   
@<TRIPOS>SUBSTRUCTURE
     1 HKG         1 TEMP              0 ****  ****    0 ROOT
