@<TRIPOS>MOLECULE
HKH
   58    61     1     0     0
SMALL
No Charge or Current Charge


@<TRIPOS>ATOM
      1 C2           5.6840    -1.5130     1.0910 c5         1 HKH       0.180300
      2 C3           6.0120    -0.0220     1.3830 c5         1 HKH       0.114300
      3 O4           6.7060     0.5680     0.2460 os         1 HKH      -0.440000
      4 C8           5.8270     1.5220    -0.3970 c5         1 HKH       0.108600
      5 C9           4.4440    -1.4430     0.1540 c5         1 HKH       0.075000
      6 C13          1.5050    -0.8860    -0.4660 c3         1 HKH       0.042700
      7 C14          1.9000    -0.6420    -1.9580 c3         1 HKH      -0.084400
      8 C15          1.3690     0.6560    -2.6390 c3         1 HKH      -0.057700
      9 C22         -2.3700    -1.0820    -0.3750 ca         1 HKH      -0.148600
     10 C24         -4.0010     0.4890     0.5660 ca         1 HKH      -0.114000
     11 C27         -3.4460    -1.9020    -0.7770 ca         1 HKH      -0.066500
     12 C30         -8.8170    -0.0110     0.5200 cc         1 HKH      -0.132000
     13 C31         -8.6230     1.1810     1.1660 cd         1 HKH      -0.240000
     14 F1           5.3550    -2.1780     2.2780 f          1 HKH      -0.254000
     15 C6           4.8550     1.9960     0.7290 c5         1 HKH       0.129300
     16 O7           5.4470     2.9760     1.5990 oh         1 HKH      -0.697000
     17 C5           4.6060     0.6440     1.4710 c5         1 HKH       0.080700
     18 N10          3.7450    -0.2070     0.6000 n          1 HKH      -0.404800
     19 C17          1.8980     1.9540    -1.9880 c3         1 HKH      -0.092600
     20 C18          1.6920     0.6440    -4.1510 c3         1 HKH      -0.092600
     21 N19          0.0560    -0.6820    -0.2380 ns         1 HKH      -0.497900
     22 O21         -0.6980    -2.5440    -1.2880 o          1 HKH      -0.614100
     23 C26         -4.7760    -1.5340    -0.5110 ca         1 HKH      -0.114000
     24 C25         -5.0750    -0.3330     0.1650 ca         1 HKH       0.019000
     25 C23         -2.6690     0.1240     0.3020 ca         1 HKH      -0.066500
     26 C28         -6.4780     0.0540     0.4440 cd         1 HKH      -0.168000
     27 S32         -6.8980     1.5630     1.2950 ss         1 HKH       0.210000
     28 C29         -7.6160    -0.6430     0.1140 cc         1 HKH      -0.119000
     29 H1           6.5260    -2.0450     0.6300 h1         1 HKH       0.089700
     30 H2           6.6130     0.1190     2.2910 h1         1 HKH       0.084700
     31 H3           6.4160     2.3410    -0.8310 h1         1 HKH       0.059200
     32 H4           5.2870     1.0200    -1.2100 h1         1 HKH       0.059200
     33 H5           4.7620    -1.3590    -0.8930 h1         1 HKH       0.071200
     34 H6           3.8250    -2.3440     0.2550 h1         1 HKH       0.071200
     35 H7           1.7220    -1.9370    -0.2380 h1         1 HKH       0.079700
     36 H8           2.9890    -0.6750    -2.0690 hc         1 HKH       0.054200
     37 H9           1.5260    -1.4970    -2.5360 hc         1 HKH       0.054200
     38 H10          0.2750     0.6660    -2.5530 hc         1 HKH       0.054700
     39 H11         -4.1810     1.4240     1.0880 ha         1 HKH       0.119500
     40 H12         -3.2560    -2.8370    -1.3010 ha         1 HKH       0.126500
     41 H14         -9.3660     1.8560     1.5730 h4         1 HKH       0.151000
     42 H15          3.9220     2.3930     0.3050 h1         1 HKH       0.057700
     43 H16          5.6130     3.7840     1.0610 ho         1 HKH       0.509000
     44 H17          4.2210     0.7490     2.4950 h1         1 HKH       0.112700
     45 H18          2.9940     1.9540    -1.9490 hc         1 HKH       0.034367
     46 H19          1.5780     2.8320    -2.5620 hc         1 HKH       0.034367
     47 H20          1.5090     2.0760    -0.9720 hc         1 HKH       0.034367
     48 H21          1.2680    -0.2450    -4.6330 hc         1 HKH       0.034367
     49 H22          1.2690     1.5270    -4.6460 hc         1 HKH       0.034367
     50 H23          2.7760     0.6430    -4.3190 hc         1 HKH       0.034367
     51 H24         -0.2230     0.1330     0.2940 hn         1 HKH       0.344500
     52 H25         -5.5690    -2.1980    -0.8390 ha         1 HKH       0.119500
     53 H26         -1.8820     0.7980     0.6310 ha         1 HKH       0.126500
     54 H27         -7.6330    -1.5940    -0.4080 ha         1 HKH       0.136000
     55 C11          2.3400    -0.0580     0.5690 c          1 HKH       0.603100
     56 C20         -0.9500    -1.5120    -0.6820 c          1 HKH       0.617700
     57 O12          1.7970     0.7500     1.3160 o          1 HKH      -0.601100
     58 H13         -9.7940    -0.4450     0.3270 ha         1 HKH       0.135000
@<TRIPOS>BOND
     1     1     2 1   
     2     1     5 1   
     3     1    14 1   
     4     1    29 1   
     5     2     3 1   
     6     2    17 1   
     7     2    30 1   
     8     3     4 1   
     9     4    15 1   
    10     4    31 1   
    11     4    32 1   
    12     5    18 1   
    13     5    33 1   
    14     5    34 1   
    15     6     7 1   
    16     6    21 1   
    17     6    35 1   
    18     6    55 1   
    19     7     8 1   
    20     7    36 1   
    21     7    37 1   
    22     8    19 1   
    23     8    20 1   
    24     8    38 1   
    25     9    11 ar  
    26     9    25 ar  
    27     9    56 1   
    28    10    24 ar  
    29    10    25 ar  
    30    10    39 1   
    31    11    23 ar  
    32    11    40 1   
    33    12    13 2   
    34    12    28 1   
    35    12    58 1   
    36    13    27 1   
    37    13    41 1   
    38    15    16 1   
    39    15    17 1   
    40    15    42 1   
    41    16    43 1   
    42    17    18 1   
    43    17    44 1   
    44    18    55 1   
    45    19    45 1   
    46    19    46 1   
    47    19    47 1   
    48    20    48 1   
    49    20    49 1   
    50    20    50 1   
    51    21    51 1   
    52    21    56 1   
    53    22    56 2   
    54    23    24 ar  
    55    23    52 1   
    56    24    26 1   
    57    25    53 1   
    58    26    27 1   
    59    26    28 2   
    60    28    54 1   
    61    55    57 2   
@<TRIPOS>SUBSTRUCTURE
     1 HKH         1 TEMP              0 ****  ****    0 ROOT
