@<TRIPOS>MOLECULE
HKH
   58    61     1     0     0
SMALL
bcc


@<TRIPOS>ATOM
      1 C2           5.4150    -1.6270     0.8030 c5         1 HKH       0.161600
      2 C3           5.7620    -0.2540     1.3420 c5         1 HKH       0.091100
      3 O4           6.5960     0.4000     0.4150 os         1 HKH      -0.393600
      4 C8           6.3540     1.7830     0.5630 c5         1 HKH       0.085400
      5 C9           4.3240    -1.3400    -0.2010 c5         1 HKH       0.075000
      6 C13          1.4560    -0.8250    -0.6240 c3         1 HKH       0.042700
      7 C14          1.7850    -0.6190    -2.1170 c3         1 HKH      -0.084400
      8 C15          1.3340     0.6920    -2.7630 c3         1 HKH      -0.057700
      9 C22         -2.3000    -1.0220    -0.3120 ca         1 HKH      -0.148600
     10 C24         -3.9930     0.6540     0.0730 ca         1 HKH      -0.132000
     11 C27         -3.2730    -2.0070    -0.1540 ca         1 HKH      -0.084500
     12 C30         -8.6760    -0.0930     0.6970 cc         1 HKH      -0.150000
     13 C31         -8.4530     1.1350     1.2410 cd         1 HKH      -0.113100
     14 F1           4.8880    -2.3710     1.8550 f          1 HKH      -0.235300
     15 C6           4.8400     1.9250     0.7970 c5         1 HKH       0.106100
     16 O7           4.5120     2.9090     1.7410 oh         1 HKH      -0.574800
     17 C5           4.4460     0.5320     1.3220 c5         1 HKH       0.080700
     18 N10          3.6000    -0.2330     0.4090 n          1 HKH      -0.471800
     19 C17          2.1150     1.9110    -2.2810 c3         1 HKH      -0.092600
     20 C18          1.4540     0.5610    -4.2800 c3         1 HKH      -0.092600
     21 N19          0.0660    -0.5730    -0.3340 ns         1 HKH      -0.564900
     22 O21         -0.6810    -2.5400    -1.1420 o          1 HKH      -0.614100
     23 C26         -4.5810    -1.6690     0.1380 ca         1 HKH      -0.132000
     24 C25         -4.9670    -0.3300     0.2520 ca         1 HKH       0.019000
     25 C23         -2.6790     0.3130    -0.1990 ca         1 HKH      -0.084500
     26 C28         -6.3580     0.0110     0.5370 cd         1 HKH      -0.023100
     27 S32         -6.7850     1.5170     1.2700 ss         1 HKH      -0.079800
     28 C29         -7.4790    -0.7370     0.2960 cc         1 HKH      -0.137000
     29 H1           6.2620    -2.1700     0.3820 h1         1 HKH       0.089700
     30 H2           6.2170    -0.2900     2.3400 h1         1 HKH       0.084700
     31 H3           6.8910     2.1870     1.4310 h1         1 HKH       0.059200
     32 H4           6.7070     2.2930    -0.3340 h1         1 HKH       0.059200
     33 H5           4.7710    -1.0550    -1.1560 h1         1 HKH       0.071200
     34 H6           3.6940    -2.2110    -0.3760 h1         1 HKH       0.071200
     35 H7           1.6610    -1.8760    -0.3950 h1         1 HKH       0.079700
     36 H8           2.8590    -0.7480    -2.2760 hc         1 HKH       0.054200
     37 H9           1.3110    -1.4480    -2.6470 hc         1 HKH       0.054200
     38 H10          0.2760     0.8470    -2.5250 hc         1 HKH       0.054700
     39 H11         -4.2580     1.7030     0.1230 ha         1 HKH       0.137500
     40 H12         -3.0030    -3.0500    -0.2440 ha         1 HKH       0.144500
     41 H14         -9.1770     1.8350     1.6270 h4         1 HKH       0.169000
     42 H15          4.3330     2.1100    -0.1580 h1         1 HKH       0.057700
     43 H16          4.7270     3.7700     1.3700 ho         1 HKH       0.410000
     44 H17          3.9760     0.6060     2.3040 h1         1 HKH       0.112700
     45 H18          3.1900     1.7690    -2.4270 hc         1 HKH       0.034367
     46 H19          1.8220     2.7990    -2.8430 hc         1 HKH       0.034367
     47 H20          1.9430     2.1280    -1.2290 hc         1 HKH       0.034367
     48 H21          0.8540    -0.2680    -4.6580 hc         1 HKH       0.034367
     49 H22          1.1180     1.4710    -4.7800 hc         1 HKH       0.034367
     50 H23          2.4900     0.3850    -4.5780 hc         1 HKH       0.034367
     51 H24         -0.1400     0.2610     0.1960 hn         1 HKH       0.344500
     52 H25         -5.3080    -2.4560     0.2880 ha         1 HKH       0.137500
     53 H26         -1.9670     1.1130    -0.3540 ha         1 HKH       0.144500
     54 H27         -7.4520    -1.7100    -0.1740 ha         1 HKH       0.154000
     55 C11          2.2860     0.0280     0.3320 c          1 HKH       0.670100
     56 C20         -0.9060    -1.4480    -0.6350 c          1 HKH       0.684700
     57 O12          1.7690     0.9120     1.0030 o          1 HKH      -0.601100
     58 H13         -9.6600    -0.5230     0.5800 ha         1 HKH       0.153000
@<TRIPOS>BOND
     1     1     2 1   
     2     1     5 1   
     3     1    14 1   
     4     1    29 1   
     5     2     3 1   
     6     2    17 1   
     7     2    30 1   
     8     3     4 1   
     9     4    15 1   
    10     4    31 1   
    11     4    32 1   
    12     5    18 1   
    13     5    33 1   
    14     5    34 1   
    15     6     7 1   
    16     6    21 1   
    17     6    35 1   
    18     6    55 1   
    19     7     8 1   
    20     7    36 1   
    21     7    37 1   
    22     8    19 1   
    23     8    20 1   
    24     8    38 1   
    25     9    11 ar  
    26     9    25 ar  
    27     9    56 1   
    28    10    24 ar  
    29    10    25 ar  
    30    10    39 1   
    31    11    23 ar  
    32    11    40 1   
    33    12    13 2   
    34    12    28 1   
    35    12    58 1   
    36    13    27 1   
    37    13    41 1   
    38    15    16 1   
    39    15    17 1   
    40    15    42 1   
    41    16    43 1   
    42    17    18 1   
    43    17    44 1   
    44    18    55 1   
    45    19    45 1   
    46    19    46 1   
    47    19    47 1   
    48    20    48 1   
    49    20    49 1   
    50    20    50 1   
    51    21    51 1   
    52    21    56 1   
    53    22    56 2   
    54    23    24 ar  
    55    23    52 1   
    56    24    26 1   
    57    25    53 1   
    58    26    27 1   
    59    26    28 2   
    60    28    54 1   
    61    55    57 2   
@<TRIPOS>SUBSTRUCTURE
     1 HKH         1 TEMP              0 ****  ****    0 ROOT
