@<TRIPOS>MOLECULE
HKI
   71    74     1     0     0
SMALL
bcc


@<TRIPOS>ATOM
      1 CAJ         -3.1140    -5.6770    -1.9910 cg         1 HKI       0.245800
      2 CAL          5.1660     2.1550     2.0650 ca         1 HKI      -0.097000
      3 CAK          6.1750     2.8200     1.3870 ca         1 HKI      -0.248300
      4 CAO          0.6480    -2.2530    -2.3090 ca         1 HKI      -0.089000
      5 CAP          1.7710    -1.5640    -1.8800 ca         1 HKI      -0.178000
      6 CAN          4.3540     1.2700     1.3710 ca         1 HKI      -0.217300
      7 CAS         -2.3900    -0.9770    -0.6240 ca         1 HKI      -0.110000
      8 CAT         -4.9010    -1.1100     0.5730 ca         1 HKI      -0.270300
      9 CAR          0.0830    -2.7660    -0.0330 ca         1 HKI      -0.104000
     10 CAM          6.3280     2.5630     0.0330 ca         1 HKI       0.405200
     11 CAQ         -4.7930    -4.3650    -0.8130 ca         1 HKI       0.492200
     12 CBL         -3.5080    -4.4590    -1.3850 ca         1 HKI      -0.274300
     13 CBR         -3.1100    -2.1950    -0.6700 ca         1 HKI      -0.194300
     14 CBQ         -4.4030    -2.2440    -0.0990 ca         1 HKI       0.455600
     15 CBI         -0.2100    -2.8380    -1.3920 ca         1 HKI       0.096600
     16 CBM         -2.8810     0.1220     0.0310 ca         1 HKI       0.042600
     17 CBP         -2.6170    -3.3810    -1.3020 ca         1 HKI       0.295600
     18 CBN          2.0340    -1.4210    -0.5230 ca         1 HKI       0.160100
     19 CBO         -4.1650     0.0420     0.6580 ca         1 HKI       0.139100
     20 CBJ          1.1810    -2.0470     0.3890 ca         1 HKI       0.004400
     21 CBK          4.5920     1.0830     0.0140 ca         1 HKI       0.405600
     22 CBH         -1.0130     1.7130    -0.3710 c          1 HKI       0.677100
     23 CAA         -6.0130     2.5770     2.5060 c3         1 HKI      -0.097100
     24 CAB          2.4270     6.8890    -0.4270 c3         1 HKI       0.149100
     25 CAC          3.4700     4.8130     0.0870 c3         1 HKI       0.149100
     26 CAV          3.7350     0.1940    -0.8440 c3         1 HKI       0.085100
     27 CAX         -0.6280     3.1310    -0.0050 c3         1 HKI      -0.161400
     28 CBT          0.7850     3.5090    -0.4180 c3         1 HKI      -0.066400
     29 CAY          1.0710     4.9620    -0.0560 c3         1 HKI       0.164800
     30 CAU         -5.8410     1.2070     1.8970 c3         1 HKI       0.145400
     31 NAD         -2.7910    -6.6700    -2.4830 n1         1 HKI      -0.384800
     32 NBA         -5.2270    -3.3220    -0.1740 nb         1 HKI      -0.698000
     33 NAZ          5.5620     1.7150    -0.6390 nb         1 HKI      -0.674000
     34 NBU          2.3410     5.4500    -0.5560 n3         1 HKI      -0.709600
     35 OAG         -0.3230     0.9920    -1.0640 o          1 HKI      -0.584100
     36 OBE          3.0610    -0.7260    -0.0140 os         1 HKI      -0.311900
     37 OBD         -4.5550     1.1560     1.2820 os         1 HKI      -0.347900
     38 CLA          1.5120    -1.9020     2.0780 cl         1 HKI      -0.091400
     39 H1           5.0070     2.3230     3.1220 ha         1 HKI       0.138000
     40 H2           6.8290     3.5180     1.8910 ha         1 HKI       0.142000
     41 H3           0.4290    -2.3140    -3.3680 ha         1 HKI       0.145000
     42 H4           2.4200    -1.1150    -2.6190 ha         1 HKI       0.147000
     43 H5           3.5570     0.7440     1.8760 ha         1 HKI       0.161000
     44 H6          -1.4390    -0.8870    -1.1130 ha         1 HKI       0.180000
     45 H7          -5.8870    -1.1870     1.0090 ha         1 HKI       0.157000
     46 H8          -0.5610    -3.2440     0.6940 ha         1 HKI       0.159000
     47 H9           7.1070     3.0630    -0.5330 h4         1 HKI       0.021100
     48 H10         -5.4580    -5.2190    -0.8870 h4         1 HKI       0.026100
     49 H11         -6.9950     2.6370     2.9750 hc         1 HKI       0.049367
     50 H12         -5.2630     2.7700     3.2720 hc         1 HKI       0.049367
     51 H13         -5.9530     3.3600     1.7500 hc         1 HKI       0.049367
     52 H14          3.3690     7.2460    -0.8460 h1         1 HKI       0.030700
     53 H15          1.6150     7.3670    -0.9770 h1         1 HKI       0.030700
     54 H16          2.3740     7.2370     0.6170 h1         1 HKI       0.030700
     55 H17          3.4630     3.7380    -0.0880 h1         1 HKI       0.030700
     56 H18          4.4020     5.2030    -0.3240 h1         1 HKI       0.030700
     57 H19          3.4920     4.9680     1.1780 h1         1 HKI       0.030700
     58 H20          3.0140     0.8110    -1.3950 h1         1 HKI       0.064700
     59 H21          4.3650    -0.3160    -1.5800 h1         1 HKI       0.064700
     60 H22         -1.3500     3.8060    -0.4780 hc         1 HKI       0.059700
     61 H23         -0.7590     3.2670     1.0730 hc         1 HKI       0.059700
     62 H24          1.4960     2.8390     0.0690 hc         1 HKI       0.062700
     63 H25          0.9120     3.3800    -1.4950 hc         1 HKI       0.062700
     64 H26          0.2820     5.5830    -0.4920 h1         1 HKI       0.026200
     65 H27          0.9910     5.0890     1.0390 h1         1 HKI       0.026200
     66 H28         -5.9160     0.4290     2.6620 h1         1 HKI       0.043700
     67 H29         -6.6140     1.0160     1.1450 h1         1 HKI       0.043700
     68 H30         -1.2170    -4.2840    -2.4480 hn         1 HKI       0.450800
     69 H31         -2.7000     2.0360     0.6970 hn         1 HKI       0.333500
     70 NBC         -1.3770    -3.4950    -1.8380 nu         1 HKI      -0.642000
     71 NBB         -2.2200     1.3410     0.1450 ns         1 HKI      -0.470100
@<TRIPOS>BOND
     1     1    12 1   
     2     1    31 3   
     3     2     3 ar  
     4     2     6 ar  
     5     2    39 1   
     6     3    10 ar  
     7     3    40 1   
     8     4     5 ar  
     9     4    15 ar  
    10     4    41 1   
    11     5    18 ar  
    12     5    42 1   
    13     6    21 ar  
    14     6    43 1   
    15     7    13 ar  
    16     7    16 ar  
    17     7    44 1   
    18     8    14 ar  
    19     8    19 ar  
    20     8    45 1   
    21     9    15 ar  
    22     9    20 ar  
    23     9    46 1   
    24    10    33 ar  
    25    10    47 1   
    26    11    12 ar  
    27    11    32 ar  
    28    11    48 1   
    29    12    17 ar  
    30    13    14 ar  
    31    13    17 ar  
    32    14    32 ar  
    33    15    70 1   
    34    16    19 ar  
    35    16    71 1   
    36    17    70 1   
    37    18    20 ar  
    38    18    36 1   
    39    19    37 1   
    40    20    38 1   
    41    21    26 1   
    42    21    33 ar  
    43    22    27 1   
    44    22    35 2   
    45    22    71 1   
    46    23    30 1   
    47    23    49 1   
    48    23    50 1   
    49    23    51 1   
    50    24    34 1   
    51    24    52 1   
    52    24    53 1   
    53    24    54 1   
    54    25    34 1   
    55    25    55 1   
    56    25    56 1   
    57    25    57 1   
    58    26    36 1   
    59    26    58 1   
    60    26    59 1   
    61    27    28 1   
    62    27    60 1   
    63    27    61 1   
    64    28    29 1   
    65    28    62 1   
    66    28    63 1   
    67    29    34 1   
    68    29    64 1   
    69    29    65 1   
    70    30    37 1   
    71    30    66 1   
    72    30    67 1   
    73    68    70 1   
    74    69    71 1   
@<TRIPOS>SUBSTRUCTURE
     1 HKI         1 TEMP              0 ****  ****    0 ROOT
