@<TRIPOS>MOLECULE
HKI
   71    74     1     0     0
SMALL
No Charge or Current Charge


@<TRIPOS>ATOM
      1 CAJ         -2.5350    -5.7480    -1.3090 cg         1 HKI       0.335000
      2 CAL          5.8410     3.3660     0.0850 ca         1 HKI      -0.079000
      3 CAK          7.1490     2.9070     0.3120 ca         1 HKI      -0.165000
      4 CAO          0.9410    -2.3430    -2.2910 ca         1 HKI      -0.071000
      5 CAP          2.0850    -1.5710    -2.0150 ca         1 HKI      -0.160000
      6 CAN          4.9180     2.4730    -0.4800 ca         1 HKI      -0.134000
      7 CAS         -2.6690    -0.8120    -0.7970 ca         1 HKI      -0.092000
      8 CAT         -5.0610    -1.1430     0.6070 ca         1 HKI      -0.187000
      9 CAR          0.1280    -1.9650    -0.0370 ca         1 HKI      -0.086000
     10 CAM          7.4810     1.5860    -0.0320 ca         1 HKI       0.339900
     11 CAQ         -4.3570    -4.5740    -0.2220 ca         1 HKI       0.426900
     12 CBL         -3.1250    -4.5220    -0.8720 ca         1 HKI      -0.209000
     13 CBR         -3.1800    -2.1160    -0.5900 ca         1 HKI      -0.129000
     14 CBQ         -4.4100    -2.2730     0.0870 ca         1 HKI       0.325000
     15 CBI         -0.0540    -2.5250    -1.3150 ca         1 HKI       0.235000
     16 CBM         -3.3090     0.3160    -0.2510 ca         1 HKI      -0.050000
     17 CBP         -2.5020    -3.2780    -1.0430 ca         1 HKI       0.434000
     18 CBN          2.2430    -0.9690    -0.7460 ca         1 HKI       0.160100
     19 CBO         -4.5060     0.1450     0.4670 ca         1 HKI       0.139100
     20 CBJ          1.2590    -1.1830     0.2430 ca         1 HKI       0.096000
     21 CBK          5.3260     1.1620    -0.7950 ca         1 HKI       0.340300
     22 CBH         -1.7340     2.1290    -1.1490 c          1 HKI       0.610100
     23 CAA         -6.6740     2.6310     2.2070 c3         1 HKI      -0.097100
     24 CAB          2.7850     5.9740     1.0970 c3         1 HKI       0.149100
     25 CAC          2.4920     3.6860     1.9330 c3         1 HKI       0.149100
     26 CAV          4.3380     0.1740    -1.4120 c3         1 HKI       0.108300
     27 CAX         -1.1940     3.4960    -0.7150 c3         1 HKI      -0.161400
     28 CBT          0.2310     3.3560    -0.1190 c3         1 HKI      -0.066400
     29 CAY          0.8120     4.6920     0.3960 c3         1 HKI       0.164800
     30 CAU         -6.3280     1.2010     1.7650 c3         1 HKI       0.168600
     31 NAD         -2.0650    -6.7520    -1.6730 n1         1 HKI      -0.474000
     32 NBA         -4.9820    -3.4810     0.2610 nb         1 HKI      -0.698000
     33 NAZ          6.5930     0.7220    -0.5780 nb         1 HKI      -0.674000
     34 NBU          2.2330     4.6300     0.8180 n3         1 HKI      -0.709600
     35 OAG         -1.3110     1.5650    -2.1520 o          1 HKI      -0.584100
     36 OBE          3.3250    -0.1630    -0.4420 os         1 HKI      -0.335100
     37 OBD         -5.1060     1.2670     1.0110 os         1 HKI      -0.371100
     38 ClA          1.4100    -0.4430     1.8390 cl         1 HKI      -0.183000
     39 H1           5.5510     4.3830     0.3390 ha         1 HKI       0.120000
     40 H2           7.9000     3.5610     0.7470 ha         1 HKI       0.124000
     41 H3           0.8140    -2.7770    -3.2800 ha         1 HKI       0.127000
     42 H4           2.8240    -1.4380    -2.7990 ha         1 HKI       0.129000
     43 H5           3.8950     2.7860    -0.6700 ha         1 HKI       0.143000
     44 H6          -1.7590    -0.6760    -1.3650 ha         1 HKI       0.162000
     45 H7          -5.9950    -1.2940     1.1360 ha         1 HKI       0.139000
     46 H8          -0.6220    -2.1110     0.7340 ha         1 HKI       0.141000
     47 H9           8.4890     1.2060     0.1330 h4         1 HKI       0.021100
     48 H10         -4.8650    -5.5240    -0.0600 h4         1 HKI       0.026100
     49 H11         -7.6040     2.6340     2.7890 hc         1 HKI       0.049367
     50 H12         -5.8750     3.0460     2.8340 hc         1 HKI       0.049367
     51 H13         -6.8110     3.2820     1.3360 hc         1 HKI       0.049367
     52 H14          3.8560     5.9140     1.3330 h1         1 HKI       0.030700
     53 H15          2.6690     6.6300     0.2250 h1         1 HKI       0.030700
     54 H16          2.2710     6.4390     1.9490 h1         1 HKI       0.030700
     55 H17          2.2420     2.6560     1.6470 h1         1 HKI       0.030700
     56 H18          3.5540     3.6980     2.2110 h1         1 HKI       0.030700
     57 H19          1.9020     3.9550     2.8190 h1         1 HKI       0.030700
     58 H20          3.8850     0.6440    -2.2950 h1         1 HKI       0.064700
     59 H21          4.8720    -0.7270    -1.7420 h1         1 HKI       0.064700
     60 H22         -1.1430     4.1520    -1.5920 hc         1 HKI       0.059700
     61 H23         -1.8510     3.9390     0.0440 hc         1 HKI       0.059700
     62 H24          0.1980     2.6310     0.7030 hc         1 HKI       0.062700
     63 H25          0.9050     2.9460    -0.8820 hc         1 HKI       0.062700
     64 H26          0.7130     5.4280    -0.4140 h1         1 HKI       0.026200
     65 H27          0.1890     5.0470     1.2290 h1         1 HKI       0.026200
     66 H28         -6.2070     0.5640     2.6510 h1         1 HKI       0.043700
     67 H29         -7.1450     0.8010     1.1500 h1         1 HKI       0.043700
     68 H30         -1.1090    -3.8960    -2.3990 hn         1 HKI       0.506000
     69 H31         -3.0460     2.2450     0.3950 hn         1 HKI       0.167000
     70 NBC         -1.2260    -3.2220    -1.6380 nu         1 HKI      -0.974000
     71 NBB         -2.7300     1.6140    -0.3310 ns         1 HKI      -0.144000
@<TRIPOS>BOND
     1     1    12 1   
     2     1    31 3   
     3     2     3 ar  
     4     2     6 ar  
     5     2    39 1   
     6     3    10 ar  
     7     3    40 1   
     8     4     5 ar  
     9     4    15 ar  
    10     4    41 1   
    11     5    18 ar  
    12     5    42 1   
    13     6    21 ar  
    14     6    43 1   
    15     7    13 ar  
    16     7    16 ar  
    17     7    44 1   
    18     8    14 ar  
    19     8    19 ar  
    20     8    45 1   
    21     9    15 ar  
    22     9    20 ar  
    23     9    46 1   
    24    10    33 ar  
    25    10    47 1   
    26    11    12 ar  
    27    11    32 ar  
    28    11    48 1   
    29    12    17 ar  
    30    13    14 ar  
    31    13    17 ar  
    32    14    32 ar  
    33    15    70 1   
    34    16    19 ar  
    35    16    71 1   
    36    17    70 1   
    37    18    20 ar  
    38    18    36 1   
    39    19    37 1   
    40    20    38 1   
    41    21    26 1   
    42    21    33 ar  
    43    22    27 1   
    44    22    35 2   
    45    22    71 1   
    46    23    30 1   
    47    23    49 1   
    48    23    50 1   
    49    23    51 1   
    50    24    34 1   
    51    24    52 1   
    52    24    53 1   
    53    24    54 1   
    54    25    34 1   
    55    25    55 1   
    56    25    56 1   
    57    25    57 1   
    58    26    36 1   
    59    26    58 1   
    60    26    59 1   
    61    27    28 1   
    62    27    60 1   
    63    27    61 1   
    64    28    29 1   
    65    28    62 1   
    66    28    63 1   
    67    29    34 1   
    68    29    64 1   
    69    29    65 1   
    70    30    37 1   
    71    30    66 1   
    72    30    67 1   
    73    68    70 1   
    74    69    71 1   
@<TRIPOS>SUBSTRUCTURE
     1 HKI         1 TEMP              0 ****  ****    0 ROOT
