@<TRIPOS>MOLECULE
HKJ
   53    57     1     0     0
SMALL
No Charge or Current Charge


@<TRIPOS>ATOM
      1 C5          -1.2430     0.6610     0.2330 ca         1 HKJ       0.639900
      2 C6          -0.6280     1.9030     0.4730 ca         1 HKJ      -0.236000
      3 C7           0.7670     1.9450     0.6230 ca         1 HKJ      -0.001000
      4 C8           1.4300     0.7150     0.5250 ca         1 HKJ      -0.124800
      5 C10          3.0440    -0.9680     0.4700 cc         1 HKJ      -0.010100
      6 C13          2.5680    -3.8070     0.0120 cc         1 HKJ      -0.230000
      7 C15          2.5040    -6.3870    -0.3200 c3         1 HKJ      -0.035800
      8 C24          4.2620     2.5390    -0.5760 cy         1 HKJ      -0.390700
      9 C28         -5.0530     0.9380    -0.1370 ca         1 HKJ       0.327300
     10 C1          -3.3520     2.0280    -1.6940 c3         1 HKJ      -0.124100
     11 C12          1.5530    -2.8360     0.0790 cc         1 HKJ       0.330500
     12 C14          1.9380    -4.9990    -0.1740 cd         1 HKJ      -0.123300
     13 C19          0.7450    -0.4680     0.2970 ca         1 HKJ       0.438500
     14 C2          -3.6130     1.4940    -0.2680 c3         1 HKJ       0.198200
     15 C25          5.5020     3.4560    -0.7470 cy         1 HKJ       0.188600
     16 C27          4.8240     1.8110    -1.8270 cy         1 HKJ       0.188600
     17 C29         -6.0950     1.7650     0.3370 ca         1 HKJ      -0.126000
     18 C30         -7.4000     1.2480     0.4480 ca         1 HKJ      -0.110000
     19 C31         -7.6150    -0.0880     0.0770 ca         1 HKJ       0.120000
     20 C33         -6.5270    -0.8540    -0.3890 ca         1 HKJ       0.314900
     21 C9           2.8480     0.3960     0.6220 cd         1 HKJ      -0.343300
     22 F32         -8.8530    -0.6280     0.1670 f          1 HKJ      -0.166000
     23 N11          1.7360    -1.4560     0.2650 na         1 HKJ      -0.166900
     24 N16          0.5700    -4.6820    -0.2090 na         1 HKJ       0.002800
     25 N18          0.3330    -3.3140    -0.0500 nd         1 HKJ      -0.475800
     26 N20         -0.6010    -0.5040     0.1500 nb         1 HKJ      -0.744000
     27 N34         -5.2660    -0.3610    -0.4990 nb         1 HKJ      -0.657000
     28 N4          -2.5860     0.4900     0.0830 nu         1 HKJ      -0.922100
     29 O22          5.4060     0.8040     1.1420 o          1 HKJ      -0.528000
     30 O23          3.6910     2.4740     2.0210 o          1 HKJ      -0.528000
     31 O26          6.1470     2.3400    -1.4570 oq         1 HKJ      -0.436000
     32 S21          4.1620     1.5650     0.9680 sy         1 HKJ       1.123100
     33 H1          -1.2160     2.8110     0.5420 ha         1 HKJ       0.122000
     34 H2           1.2910     2.8800     0.8060 ha         1 HKJ       0.132000
     35 H3           3.9490    -1.5670     0.5040 h4         1 HKJ       0.245000
     36 H4           3.6370    -3.6490     0.0870 ha         1 HKJ       0.153000
     37 H5           2.1310    -7.0500     0.4690 hc         1 HKJ       0.056367
     38 H6           2.2290    -6.8250    -1.2870 hc         1 HKJ       0.056367
     39 H7           3.5990    -6.3760    -0.2580 hc         1 HKJ       0.056367
     40 H8           3.3070     3.0400    -0.7440 h1         1 HKJ       0.118700
     41 H10         -4.0980     2.7870    -1.9580 hc         1 HKJ       0.049033
     42 H11         -2.3610     2.4900    -1.7700 hc         1 HKJ       0.049033
     43 H12         -3.5310     2.3400     0.4280 h1         1 HKJ       0.064700
     44 H13          5.3510     4.3200    -1.4070 h1         1 HKJ       0.061700
     45 H14          6.0330     3.7370     0.1710 h1         1 HKJ       0.061700
     46 H15          4.7860     0.7150    -1.8130 h1         1 HKJ       0.061700
     47 H16          4.4820     2.2150    -2.7890 h1         1 HKJ       0.061700
     48 H17         -5.8900     2.7960     0.6140 ha         1 HKJ       0.130000
     49 H18         -8.2200     1.8640     0.8100 ha         1 HKJ       0.141000
     50 H19         -6.6690    -1.8930    -0.6840 h4         1 HKJ       0.040100
     51 H20         -0.1970    -5.3410    -0.3360 hn         1 HKJ       0.378000
     52 H21         -2.8290    -0.4830    -0.0870 hn         1 HKJ       0.517000
     53 H9          -3.4140     1.2180    -2.4300 hc         1 HKJ       0.049033
@<TRIPOS>BOND
     1     1     2 ar  
     2     1    26 ar  
     3     1    28 1   
     4     2     3 ar  
     5     2    33 1   
     6     3     4 ar  
     7     3    34 1   
     8     4    13 ar  
     9     4    21 1   
    10     5    21 2   
    11     5    23 1   
    12     5    35 1   
    13     6    11 1   
    14     6    12 2   
    15     6    36 1   
    16     7    12 1   
    17     7    37 1   
    18     7    38 1   
    19     7    39 1   
    20     8    15 1   
    21     8    16 1   
    22     8    32 1   
    23     8    40 1   
    24     9    14 1   
    25     9    17 ar  
    26     9    27 ar  
    27    10    14 1   
    28    10    41 1   
    29    10    42 1   
    30    10    53 1   
    31    11    23 1   
    32    11    25 2   
    33    12    24 1   
    34    13    23 1   
    35    13    26 ar  
    36    14    28 1   
    37    14    43 1   
    38    15    31 1   
    39    15    44 1   
    40    15    45 1   
    41    16    31 1   
    42    16    46 1   
    43    16    47 1   
    44    17    18 ar  
    45    17    48 1   
    46    18    19 ar  
    47    18    49 1   
    48    19    20 ar  
    49    19    22 1   
    50    20    27 ar  
    51    20    50 1   
    52    21    32 1   
    53    24    25 1   
    54    24    51 1   
    55    28    52 1   
    56    29    32 2   
    57    30    32 2   
@<TRIPOS>SUBSTRUCTURE
     1 HKJ         1 TEMP              0 ****  ****    0 ROOT
