@<TRIPOS>MOLECULE
HKJ
   53    57     1     0     0
SMALL
bcc


@<TRIPOS>ATOM
      1 C5          -1.2520     0.5710     0.2290 ca         1 HKJ       0.705200
      2 C6          -0.7250     1.8750     0.4330 ca         1 HKJ      -0.319300
      3 C7           0.6210     2.0480     0.6470 ca         1 HKJ      -0.019000
      4 C8           1.4380     0.9150     0.6580 ca         1 HKJ      -0.190100
      5 C10          2.9850    -0.7320     0.7060 cc         1 HKJ       0.039900
      6 C13          2.3030    -3.5380    -0.4940 cc         1 HKJ      -0.313300
      7 C15          2.0620    -6.1100    -0.8560 c3         1 HKJ      -0.035800
      8 C24          4.3460     2.4850    -0.5750 cy         1 HKJ      -0.279900
      9 C28         -4.9300     0.8190    -0.1590 ca         1 HKJ       0.392600
     10 C1          -3.3450     1.8990    -1.7450 c3         1 HKJ      -0.124100
     11 C12          1.5640    -2.6820     0.3370 cc         1 HKJ       0.395800
     12 C14          1.7340    -4.7770    -0.2880 cd         1 HKJ      -0.072600
     13 C19          0.8000    -0.3170     0.4620 ca         1 HKJ       0.503800
     14 C2          -3.5340     1.3790    -0.3160 c3         1 HKJ       0.198200
     15 C25          5.6750     3.2360    -0.7200 cy         1 HKJ       0.165400
     16 C27          4.9250     1.5550    -1.6410 cy         1 HKJ       0.165400
     17 C29         -5.9920     1.6490     0.1820 ca         1 HKJ      -0.209300
     18 C30         -7.2680     1.1180     0.2570 ca         1 HKJ      -0.128000
     19 C31         -7.4120    -0.2280    -0.0130 ca         1 HKJ       0.019600
     20 C33         -6.3130    -0.9970    -0.3420 ca         1 HKJ       0.380200
     21 C9           2.8300     0.6220     0.8050 cd         1 HKJ      -0.343300
     22 F32         -8.6210    -0.7980     0.0440 f          1 HKJ      -0.130900
     23 N11          1.7630    -1.3060     0.5070 na         1 HKJ      -0.166900
     24 N16          0.7400    -4.5770     0.5970 na         1 HKJ       0.002400
     25 N18          0.6220    -3.3160     1.0000 nd         1 HKJ      -0.475800
     26 N20         -0.4840    -0.5160     0.2470 nb         1 HKJ      -0.744000
     27 N34         -5.0990    -0.4710    -0.4130 nb         1 HKJ      -0.657000
     28 N4          -2.5780     0.3580     0.0390 nu         1 HKJ      -0.866900
     29 O22          5.3340     0.9850     1.3550 o          1 HKJ      -0.598800
     30 O23          3.6890     2.8010     1.9440 o          1 HKJ      -0.598800
     31 O26          6.1700     2.2560    -1.6340 oq         1 HKJ      -0.389600
     32 S21          4.1250     1.7430     1.0360 sy         1 HKJ       1.153900
     33 H1          -1.3770     2.7370     0.4270 ha         1 HKJ       0.140000
     34 H2           1.0220     3.0400     0.8050 ha         1 HKJ       0.150000
     35 H3           3.8750    -1.3350     0.7810 h4         1 HKJ       0.195000
     36 H4           3.1220    -3.2920    -1.1500 ha         1 HKJ       0.171000
     37 H5           2.4930    -6.7660    -0.0980 hc         1 HKJ       0.056367
     38 H6           1.1780    -6.6050    -1.2580 hc         1 HKJ       0.056367
     39 H7           2.7870    -6.0050    -1.6590 hc         1 HKJ       0.056367
     40 H8           3.4370     3.0290    -0.8280 h1         1 HKJ       0.118700
     41 H10         -4.0700     2.6820    -1.9730 hc         1 HKJ       0.049033
     42 H11         -2.3480     2.3180    -1.8810 hc         1 HKJ       0.049033
     43 H12         -3.4370     2.2160     0.3810 h1         1 HKJ       0.064700
     44 H13          5.5610     4.2230    -1.1750 h1         1 HKJ       0.061700
     45 H14          6.2900     3.3310     0.1780 h1         1 HKJ       0.061700
     46 H15          5.0280     0.5010    -1.3690 h1         1 HKJ       0.061700
     47 H16          4.4060     1.6210    -2.6000 h1         1 HKJ       0.061700
     48 H17         -5.8270     2.6990     0.3870 ha         1 HKJ       0.148000
     49 H18         -8.1200     1.7300     0.5220 ha         1 HKJ       0.159000
     50 H19         -6.4190    -2.0570    -0.5490 h4         1 HKJ       0.040100
     51 H20          0.1070    -5.2710     0.9620 hn         1 HKJ       0.327700
     52 H21         -2.8360    -0.5840    -0.2160 hn         1 HKJ       0.461800
     53 H9          -3.4780     1.0890    -2.4640 hc         1 HKJ       0.049033
@<TRIPOS>BOND
     1     1     2 ar  
     2     1    26 ar  
     3     1    28 1   
     4     2     3 ar  
     5     2    33 1   
     6     3     4 ar  
     7     3    34 1   
     8     4    13 ar  
     9     4    21 1   
    10     5    21 2   
    11     5    23 1   
    12     5    35 1   
    13     6    11 1   
    14     6    12 2   
    15     6    36 1   
    16     7    12 1   
    17     7    37 1   
    18     7    38 1   
    19     7    39 1   
    20     8    15 1   
    21     8    16 1   
    22     8    32 1   
    23     8    40 1   
    24     9    14 1   
    25     9    17 ar  
    26     9    27 ar  
    27    10    14 1   
    28    10    41 1   
    29    10    42 1   
    30    10    53 1   
    31    11    23 1   
    32    11    25 2   
    33    12    24 1   
    34    13    23 1   
    35    13    26 ar  
    36    14    28 1   
    37    14    43 1   
    38    15    31 1   
    39    15    44 1   
    40    15    45 1   
    41    16    31 1   
    42    16    46 1   
    43    16    47 1   
    44    17    18 ar  
    45    17    48 1   
    46    18    19 ar  
    47    18    49 1   
    48    19    20 ar  
    49    19    22 1   
    50    20    27 ar  
    51    20    50 1   
    52    21    32 1   
    53    24    25 1   
    54    24    51 1   
    55    28    52 1   
    56    29    32 2   
    57    30    32 2   
@<TRIPOS>SUBSTRUCTURE
     1 HKJ         1 TEMP              0 ****  ****    0 ROOT
