@<TRIPOS>MOLECULE
HKK
   31    32     1     0     0
SMALL
bcc


@<TRIPOS>ATOM
      1 N1           0.2990    -2.3300     0.2470 nb         1 HKK      -0.647000
      2 C4          -0.9610    -1.9190     0.2010 ca         1 HKK       0.421200
      3 C5           1.2510    -1.4670     0.0150 ca         1 HKK       0.476300
      4 C6          -2.7400    -0.1800    -0.1270 ce         1 HKK      -0.070400
      5 C7          -3.0920     1.0560     0.2350 c2         1 HKK      -0.174200
      6 C8          -4.4970     1.5560     0.1480 c6         1 HKK       0.159600
      7 C10         -3.7950    -1.1530    -0.5810 c6         1 HKK      -0.072200
      8 CL           2.8790    -2.0570     0.1000 cl         1 HKK      -0.171000
      9 C1           1.0250    -0.1290    -0.3140 ca         1 HKK       0.002300
     10 N            2.0650     0.7670    -0.6110 nu         1 HKK      -0.682500
     11 S            2.4600     1.9770     0.4700 s6         1 HKK       1.227900
     12 O            3.4870     2.7610    -0.1880 o          1 HKK      -0.595300
     13 O1           1.2140     2.6000     0.8790 o          1 HKK      -0.595300
     14 C            3.1700     1.1630     1.8800 c3         1 HKK      -0.267300
     15 C3          -1.3310    -0.6090    -0.0960 ca         1 HKK      -0.137100
     16 C2          -0.2970     0.2810    -0.3800 ca         1 HKK      -0.062000
     17 C9          -5.1760    -0.6510    -0.1980 c6         1 HKK       0.132400
     18 O2          -5.3470     0.7000    -0.5690 os         1 HKK      -0.396600
     19 H1          -1.7060    -2.6740     0.4210 h4         1 HKK       0.032100
     20 H2          -2.3610     1.7570     0.6230 ha         1 HKK       0.145000
     21 H3          -4.8800     1.7400     1.1640 h1         1 HKK       0.059200
     22 H4          -4.5070     2.5230    -0.3630 h1         1 HKK       0.059200
     23 H5          -3.7190    -1.3030    -1.6630 hc         1 HKK       0.059200
     24 H6          -3.6480    -2.1370    -0.1300 hc         1 HKK       0.059200
     25 H7           2.8830     0.3670    -1.0590 hn         1 HKK       0.447800
     26 H8           4.0730     0.6420     1.5730 h1         1 HKK       0.106033
     27 H9           3.4100     1.9300     2.6150 h1         1 HKK       0.106033
     28 H10          2.4490     0.4650     2.3010 h1         1 HKK       0.106033
     29 H11         -0.5170     1.2920    -0.6920 ha         1 HKK       0.172000
     30 H12         -5.9510    -1.2240    -0.7060 h1         1 HKK       0.049700
     31 H13         -5.3240    -0.7770     0.8830 h1         1 HKK       0.049700
@<TRIPOS>BOND
     1     1     2 ar  
     2     1     3 ar  
     3     2    15 ar  
     4     2    19 1   
     5     3     8 1   
     6     3     9 ar  
     7     4     5 2   
     8     4     7 1   
     9     4    15 1   
    10     5     6 1   
    11     5    20 1   
    12     6    18 1   
    13     6    21 1   
    14     6    22 1   
    15     7    17 1   
    16     7    23 1   
    17     7    24 1   
    18     9    10 1   
    19     9    16 ar  
    20    10    11 1   
    21    10    25 1   
    22    11    12 2   
    23    11    13 2   
    24    11    14 1   
    25    14    26 1   
    26    14    27 1   
    27    14    28 1   
    28    15    16 ar  
    29    16    29 1   
    30    17    18 1   
    31    17    30 1   
    32    17    31 1   
@<TRIPOS>SUBSTRUCTURE
     1 HKK         1 TEMP              0 ****  ****    0 ROOT
