@<TRIPOS>MOLECULE
HKK
   31    32     1     0     0
SMALL
No Charge or Current Charge


@<TRIPOS>ATOM
      1 N1           0.2630    -2.7520    -0.0120 nb         1 HKK      -0.647000
      2 C4          -0.9690    -2.2000     0.0550 ca         1 HKK       0.355900
      3 C5           1.3140    -1.9140    -0.1740 ca         1 HKK       0.411000
      4 C6          -2.5810    -0.2460     0.0420 ce         1 HKK      -0.070400
      5 C7          -2.8690     0.8340     0.8070 c2         1 HKK      -0.224200
      6 C8          -4.2610     1.4450     0.9010 c6         1 HKK       0.182800
      7 C10         -3.6790    -0.8930    -0.8170 c6         1 HKK      -0.072200
      8 Cl           2.8880    -2.7060    -0.2490 cl         1 HKK      -0.171000
      9 C1           1.2060    -0.4950    -0.2690 ca         1 HKK       0.206000
     10 N            2.3520     0.3210    -0.4380 nu         1 HKK      -0.876100
     11 S            2.6000     1.9110    -0.0280 s6         1 HKK       1.197100
     12 O            4.0390     2.1180    -0.1880 o          1 HKK      -0.524500
     13 O1           1.6410     2.6980    -0.8040 o          1 HKK      -0.524500
     14 C            2.1910     2.0030     1.7000 c3         1 HKK      -0.378100
     15 C3          -1.2010    -0.8100    -0.0350 ca         1 HKK      -0.071800
     16 C2          -0.0940     0.0480    -0.2010 ca         1 HKK      -0.044000
     17 C9          -5.0890    -0.4010    -0.4180 c6         1 HKK       0.155600
     18 O2          -5.0740     1.0270    -0.2150 os         1 HKK      -0.443000
     19 H1          -1.7940    -2.8960     0.1980 h4         1 HKK       0.032100
     20 H2          -2.1040     1.3150     1.4180 ha         1 HKK       0.195000
     21 H3          -4.7450     1.1300     1.8370 h1         1 HKK       0.059200
     22 H4          -4.1980     2.5430     0.9050 h1         1 HKK       0.059200
     23 H5          -3.4970    -0.6490    -1.8730 hc         1 HKK       0.059200
     24 H6          -3.6510    -1.9870    -0.7430 hc         1 HKK       0.059200
     25 H7           3.2660    -0.1170    -0.4010 hn         1 HKK       0.503000
     26 H8           2.8410     1.3010     2.2320 h1         1 HKK       0.106033
     27 H9           2.3710     3.0330     2.0230 h1         1 HKK       0.106033
     28 H10          1.1370     1.7320     1.8110 h1         1 HKK       0.106033
     29 H11         -0.2600     1.1160    -0.2930 ha         1 HKK       0.154000
     30 H12         -5.8140    -0.6500    -1.2060 h1         1 HKK       0.049700
     31 H13         -5.4130    -0.8920     0.5120 h1         1 HKK       0.049700
@<TRIPOS>BOND
     1     1     2 ar  
     2     1     3 ar  
     3     2    15 ar  
     4     2    19 1   
     5     3     8 1   
     6     3     9 ar  
     7     4     5 2   
     8     4     7 1   
     9     4    15 1   
    10     5     6 1   
    11     5    20 1   
    12     6    18 1   
    13     6    21 1   
    14     6    22 1   
    15     7    17 1   
    16     7    23 1   
    17     7    24 1   
    18     9    10 1   
    19     9    16 ar  
    20    10    11 1   
    21    10    25 1   
    22    11    12 2   
    23    11    13 2   
    24    11    14 1   
    25    14    26 1   
    26    14    27 1   
    27    14    28 1   
    28    15    16 ar  
    29    16    29 1   
    30    17    18 1   
    31    17    30 1   
    32    17    31 1   
@<TRIPOS>SUBSTRUCTURE
     1 HKK         1 TEMP              0 ****  ****    0 ROOT
