@<TRIPOS>MOLECULE
HKM
   34    36     1     0     0
SMALL
abcg2


@<TRIPOS>ATOM
      1 C18         -4.9210     0.9020    -1.5730 ca         1 HKM      -0.075000
      2 C13         -0.8840    -1.0460    -0.5920 ca         1 HKM       0.011100
      3 C12         -1.6060    -2.1880    -0.3450 ca         1 HKM      -0.082000
      4 C17         -3.6270     0.4980    -1.8710 ca         1 HKM      -0.121000
      5 C16         -2.6840     0.4390    -0.8620 ca         1 HKM       0.137100
      6 C15         -2.0390     0.7720     1.4710 cg         1 HKM       0.316000
      7 C11         -0.9580    -3.2830     0.2260 ca         1 HKM      -0.188000
      8 C10          0.3850    -3.1700     0.5130 ca         1 HKM       0.380900
      9 C8           0.4810    -1.0190    -0.2570 ca         1 HKM       0.623900
     10 N2           3.1210     1.4280    -0.4680 nc         1 HKM      -0.725000
     11 C6           5.2830     2.6140    -0.3460 c3         1 HKM      -0.118400
     12 C1           2.5430     0.2960    -0.2100 cd         1 HKM       0.678300
     13 C4           4.8740     0.2240     0.4020 cd         1 HKM      -0.320000
     14 C19         -5.2790     1.2350    -0.2730 ca         1 HKM      -0.120000
     15 C20         -4.3350     1.1800     0.7380 ca         1 HKM      -0.057000
     16 C21         -3.0300     0.7860     0.4470 ca         1 HKM      -0.042000
     17 C3           4.4480     1.3980    -0.1240 cc         1 HKM       0.327300
     18 S5           3.5750    -0.9150     0.4810 ss         1 HKM       0.037600
     19 N7           1.2170     0.1150    -0.4800 nu         1 HKM      -0.880800
     20 N9           1.0840    -2.0630     0.2730 nb         1 HKM      -0.730000
     21 O14         -1.4040     0.0820    -1.1690 os         1 HKM      -0.253200
     22 N22         -1.2390     0.7760     2.3010 n1         1 HKM      -0.430000
     23 H1          -5.6560     0.9490    -2.3640 ha         1 HKM       0.124000
     24 H2          -2.6600    -2.2430    -0.5910 ha         1 HKM       0.131000
     25 H3          -3.3460     0.2320    -2.8820 ha         1 HKM       0.137000
     26 H4          -1.4950    -4.1970     0.4360 ha         1 HKM       0.130000
     27 H5           0.9300    -3.9940     0.9550 h4         1 HKM       0.027100
     28 H6           4.8870     3.4660     0.2070 hc         1 HKM       0.047033
     29 H7           6.3100     2.4500    -0.0270 hc         1 HKM       0.047033
     30 H8           5.2950     2.8910    -1.4010 hc         1 HKM       0.047033
     31 H9           5.8640    -0.0360     0.7420 h4         1 HKM       0.155000
     32 H10         -6.2910     1.5410    -0.0450 ha         1 HKM       0.126000
     33 H11         -4.5980     1.4470     1.7520 ha         1 HKM       0.130000
     34 H12          0.7570     0.9190    -0.8810 hn         1 HKM       0.532000
@<TRIPOS>BOND
     1     1     4 ar  
     2     1    14 ar  
     3     1    23 1   
     4     2     3 ar  
     5     2     9 ar  
     6     2    21 1   
     7     3     7 ar  
     8     3    24 1   
     9     4     5 ar  
    10     4    25 1   
    11     5    16 ar  
    12     5    21 1   
    13     6    16 1   
    14     6    22 3   
    15     7     8 ar  
    16     7    26 1   
    17     8    20 ar  
    18     8    27 1   
    19     9    19 1   
    20     9    20 ar  
    21    10    12 2   
    22    10    17 1   
    23    11    17 1   
    24    11    28 1   
    25    11    29 1   
    26    11    30 1   
    27    12    18 1   
    28    12    19 1   
    29    13    17 2   
    30    13    18 1   
    31    13    31 1   
    32    14    15 ar  
    33    14    32 1   
    34    15    16 ar  
    35    15    33 1   
    36    19    34 1   
@<TRIPOS>SUBSTRUCTURE
     1 HKM         1 TEMP              0 ****  ****    0 ROOT
