@<TRIPOS>MOLECULE
HKM
   34    36     1     0     0
SMALL
No Charge or Current Charge


@<TRIPOS>ATOM
      1 C18         -4.7840     0.9770    -1.7420 ca         1 HKM      -0.075000
      2 C13         -0.8110    -0.9830    -0.3570 ca         1 HKM       0.011100
      3 C12         -1.6520    -2.1000    -0.1770 ca         1 HKM      -0.082000
      4 C17         -3.4190     0.6490    -1.8150 ca         1 HKM      -0.121000
      5 C16         -2.6480     0.5720    -0.6430 ca         1 HKM       0.137100
      6 C15         -2.4620     0.7860     1.8240 cg         1 HKM       0.316000
      7 C11         -1.0600    -3.3090     0.2250 ca         1 HKM      -0.188000
      8 C10          0.3290    -3.3650     0.4280 ca         1 HKM       0.380900
      9 C8           0.5810    -1.1450    -0.1300 ca         1 HKM       0.623900
     10 N2           3.1680     1.3140    -0.4320 nc         1 HKM      -0.725000
     11 C6           5.1980     2.7140    -0.5170 c3         1 HKM      -0.118400
     12 C1           2.7700     0.0970    -0.1500 cd         1 HKM       0.678300
     13 C4           5.1550     0.2560     0.1700 cd         1 HKM      -0.320000
     14 C19         -5.3770     1.2330    -0.4940 ca         1 HKM      -0.120000
     15 C20         -4.6070     1.1660     0.6810 ca         1 HKM      -0.057000
     16 C21         -3.2370     0.8370     0.6140 ca         1 HKM      -0.042000
     17 C3           4.5240     1.4010    -0.2490 cc         1 HKM       0.327300
     18 S5           4.0050    -1.0560     0.3650 ss         1 HKM       0.037600
     19 N7           1.4470    -0.0910    -0.2960 nu         1 HKM      -0.880800
     20 N9           1.1430    -2.3000     0.2520 nb         1 HKM      -0.730000
     21 O14         -1.3150     0.2460    -0.7520 os         1 HKM      -0.253200
     22 N22         -1.8420     0.7410     2.8120 n1         1 HKM      -0.430000
     23 H1          -5.3800     1.0320    -2.6510 ha         1 HKM       0.124000
     24 H2          -2.7260    -2.0430    -0.3450 ha         1 HKM       0.131000
     25 H3          -2.9580     0.4490    -2.7790 ha         1 HKM       0.137000
     26 H4          -1.6650    -4.1980     0.3780 ha         1 HKM       0.130000
     27 H5           0.8060    -4.2940     0.7390 h4         1 HKM       0.027100
     28 H6           4.7930     3.4990     0.1330 hc         1 HKM       0.047033
     29 H7           6.2760     2.6480    -0.3330 hc         1 HKM       0.047033
     30 H8           5.0500     3.0220    -1.5580 hc         1 HKM       0.047033
     31 H9           6.2080     0.1090     0.3730 h4         1 HKM       0.155000
     32 H10         -6.4330     1.4870    -0.4370 ha         1 HKM       0.126000
     33 H11         -5.0760     1.3720     1.6420 ha         1 HKM       0.130000
     34 H12          1.0000     0.7630    -0.5960 hn         1 HKM       0.532000
@<TRIPOS>BOND
     1     1     4 ar  
     2     1    14 ar  
     3     1    23 1   
     4     2     3 ar  
     5     2     9 ar  
     6     2    21 1   
     7     3     7 ar  
     8     3    24 1   
     9     4     5 ar  
    10     4    25 1   
    11     5    16 ar  
    12     5    21 1   
    13     6    16 1   
    14     6    22 3   
    15     7     8 ar  
    16     7    26 1   
    17     8    20 ar  
    18     8    27 1   
    19     9    19 1   
    20     9    20 ar  
    21    10    12 2   
    22    10    17 1   
    23    11    17 1   
    24    11    28 1   
    25    11    29 1   
    26    11    30 1   
    27    12    18 1   
    28    12    19 1   
    29    13    17 2   
    30    13    18 1   
    31    13    31 1   
    32    14    15 ar  
    33    14    32 1   
    34    15    16 ar  
    35    15    33 1   
    36    19    34 1   
@<TRIPOS>SUBSTRUCTURE
     1 HKM         1 TEMP              0 ****  ****    0 ROOT
