@<TRIPOS>MOLECULE
HKN
   55    58     1     0     0
SMALL
No Charge or Current Charge


@<TRIPOS>ATOM
      1 N1          -1.6930     2.7670     1.7730 nu         1 HKN      -0.848100
      2 N3           1.2450     1.9440     0.1610 nc         1 HKN      -0.589000
      3 C4          -2.2530     0.6820     0.6230 ca         1 HKN      -0.011000
      4 C5          -2.1720     2.0860     0.6280 ca         1 HKN       0.156000
      5 C6           0.6940     1.4590     1.3330 cc         1 HKN      -0.011100
      6 C7           0.8540     0.0960     1.4200 cd         1 HKN      -0.099000
      7 C10          4.2570    -1.4320     0.6290 ca         1 HKN      -0.096000
      8 C13          5.1870    -2.7640    -1.6630 ca         1 HKN      -0.106000
      9 C15          1.7290     0.8870    -0.4700 cd         1 HKN       0.408800
     10 C17         -2.6320    -1.4770    -0.6090 ce         1 HKN      -0.048400
     11 C20         -1.7350    -3.6290    -1.6280 c6         1 HKN       0.156600
     12 C21         -2.0730    -2.1420    -1.8730 c6         1 HKN      -0.076200
     13 S           -0.2370     2.4550     2.5670 sy         1 HKN       1.119200
     14 O1          -0.6160     1.6280     3.7180 o          1 HKN      -0.531000
     15 C3          -2.6300     0.0130    -0.5550 ca         1 HKN      -0.121800
     16 O3          -2.8270    -4.2640    -0.9320 os         1 HKN      -0.445000
     17 C19         -3.0360    -3.7630     0.4060 c6         1 HKN       0.185800
     18 C18         -3.0780    -2.2400     0.4160 c2         1 HKN      -0.237200
     19 C2          -2.9640     0.7870    -1.6860 ca         1 HKN       0.382900
     20 N           -2.9360     2.1390    -1.7000 nb         1 HKN      -0.754000
     21 C1          -2.5420     2.7740    -0.5700 ca         1 HKN       0.564300
     22 O           -2.4720     4.1550    -0.5670 os         1 HKN      -0.458300
     23 C           -2.8060     4.9250    -1.7390 c3         1 HKN       0.163900
     24 C16          2.3960     0.9690    -1.8150 c3         1 HKN      -0.125400
     25 N2           1.4990    -0.2750     0.2530 na         1 HKN      -0.154500
     26 C9           3.3350    -1.8820    -0.3390 ca         1 HKN      -0.122300
     27 C14          3.8090    -2.5520    -1.4840 ca         1 HKN      -0.096000
     28 C12          6.1010    -2.3090    -0.6980 ca         1 HKN      -0.098000
     29 C11          5.6350    -1.6440     0.4490 ca         1 HKN      -0.106000
     30 H1          -1.6600     3.7750     1.6620 hn         1 HKN       0.502000
     31 H2          -1.9890     0.1190     1.5130 ha         1 HKN       0.148000
     32 H3           0.5320    -0.6070     2.1800 h4         1 HKN       0.180000
     33 H4           1.4610    -2.3440     0.6040 h1         1 HKN       0.069700
     34 H5           1.3090    -1.8670    -1.0910 h1         1 HKN       0.069700
     35 H7           5.5460    -3.2800    -2.5510 ha         1 HKN       0.119000
     36 H8          -1.5650    -4.1420    -2.5850 h1         1 HKN       0.048200
     37 H9          -0.8210    -3.7180    -1.0230 h1         1 HKN       0.048200
     38 H10         -2.8130    -2.0730    -2.6810 hc         1 HKN       0.056700
     39 H11         -1.1750    -1.6130    -2.2190 hc         1 HKN       0.056700
     40 H12         -3.9770    -4.1750     0.7980 h1         1 HKN       0.055700
     41 H13         -2.2180    -4.1160     1.0520 h1         1 HKN       0.055700
     42 H14         -3.4840    -1.7890     1.3220 ha         1 HKN       0.186000
     43 H15         -3.2670     0.3100    -2.6170 h4         1 HKN       0.023100
     44 H16         -2.6880     5.9970    -1.5380 h1         1 HKN       0.047367
     45 H17         -2.1510     4.6640    -2.5800 h1         1 HKN       0.047367
     46 H18         -3.8470     4.7490    -2.0400 h1         1 HKN       0.047367
     47 H19          3.4640     0.7380    -1.7320 hc         1 HKN       0.058700
     48 H20          1.9470     0.2580    -2.5180 hc         1 HKN       0.058700
     49 H21          2.3000     1.9720    -2.2460 hc         1 HKN       0.058700
     50 H22          3.1110    -2.9080    -2.2390 ha         1 HKN       0.118000
     51 H23          7.1670    -2.4730    -0.8370 ha         1 HKN       0.118000
     52 H24          6.3410    -1.2930     1.1980 ha         1 HKN       0.119000
     53 C8           1.8390    -1.6480    -0.1550 c3         1 HKN       0.113900
     54 O2           0.3440     3.7940     2.7030 o          1 HKN      -0.531000
     55 H6           3.9090    -0.9170     1.5220 ha         1 HKN       0.118000
@<TRIPOS>BOND
     1     1     4 1   
     2     1    13 1   
     3     1    30 1   
     4     2     5 1   
     5     2     9 2   
     6     3     4 ar  
     7     3    15 ar  
     8     3    31 1   
     9     4    21 ar  
    10     5     6 2   
    11     5    13 1   
    12     6    25 1   
    13     6    32 1   
    14     7    26 ar  
    15     7    29 ar  
    16     7    55 1   
    17     8    27 ar  
    18     8    28 ar  
    19     8    35 1   
    20     9    24 1   
    21     9    25 1   
    22    10    12 1   
    23    10    15 1   
    24    10    18 2   
    25    11    12 1   
    26    11    16 1   
    27    11    36 1   
    28    11    37 1   
    29    12    38 1   
    30    12    39 1   
    31    13    14 2   
    32    13    54 2   
    33    15    19 ar  
    34    16    17 1   
    35    17    18 1   
    36    17    40 1   
    37    17    41 1   
    38    18    42 1   
    39    19    20 ar  
    40    19    43 1   
    41    20    21 ar  
    42    21    22 1   
    43    22    23 1   
    44    23    44 1   
    45    23    45 1   
    46    23    46 1   
    47    24    47 1   
    48    24    48 1   
    49    24    49 1   
    50    25    53 1   
    51    26    27 ar  
    52    26    53 1   
    53    27    50 1   
    54    28    29 ar  
    55    28    51 1   
    56    29    52 1   
    57    33    53 1   
    58    34    53 1   
@<TRIPOS>SUBSTRUCTURE
     1 HKN         1 TEMP              0 ****  ****    0 ROOT
