@<TRIPOS>MOLECULE
HKN
   55    58     1     0     0
SMALL
abcg2


@<TRIPOS>ATOM
      1 N1          -1.5300     1.8470     1.6650 nu         1 HKN      -0.848100
      2 N3           1.7510     2.2870     0.7990 nc         1 HKN      -0.589000
      3 C4          -2.8650     0.0210     0.7960 ca         1 HKN      -0.011000
      4 C5          -2.0370     1.0970     0.5780 ca         1 HKN       0.156000
      5 C6           1.0700     1.1800     1.1960 cc         1 HKN      -0.011100
      6 C7           1.3610     0.1040     0.4100 cd         1 HKN      -0.099000
      7 C10          4.7930    -0.6970     0.1330 ca         1 HKN      -0.096000
      8 C13          6.6170    -0.9530    -1.9420 ca         1 HKN      -0.106000
      9 C15          2.4720     1.8980    -0.2190 cd         1 HKN       0.408800
     10 C17         -4.2150    -1.9140    -0.1000 ce         1 HKN      -0.048400
     11 C20         -4.8710    -4.2370    -0.6820 c6         1 HKN       0.156600
     12 C21         -4.2780    -2.9390    -1.2020 c6         1 HKN      -0.076200
     13 S           -0.1630     1.2480     2.4190 sy         1 HKN       1.119200
     14 O1          -0.4670    -0.1190     2.7980 o          1 HKN      -0.531000
     15 C3          -3.3270    -0.7510    -0.2770 ca         1 HKN      -0.121800
     16 O3          -6.0800    -4.0020     0.0060 os         1 HKN      -0.445000
     17 C19         -5.8830    -3.2530     1.1770 c6         1 HKN       0.185800
     18 C18         -4.9570    -2.0930     0.9960 c2         1 HKN      -0.237200
     19 C2          -2.8940    -0.3630    -1.5370 ca         1 HKN       0.382900
     20 N           -2.1070     0.6860    -1.7690 nb         1 HKN      -0.754000
     21 C1          -1.6810     1.3960    -0.7530 ca         1 HKN       0.564300
     22 O           -0.8920     2.4470    -0.9450 os         1 HKN      -0.458300
     23 C           -0.4310     2.7120    -2.2630 c3         1 HKN       0.163900
     24 C16          3.3920     2.7480    -1.0120 c3         1 HKN      -0.125400
     25 N2           2.2600     0.5770    -0.4910 na         1 HKN      -0.154500
     26 C9           4.3710    -0.5070    -1.1790 ca         1 HKN      -0.122300
     27 C14          5.2940    -0.6320    -2.2120 ca         1 HKN      -0.096000
     28 C12          7.0340    -1.1410    -0.6310 ca         1 HKN      -0.098000
     29 C11          6.1180    -1.0100     0.4050 ca         1 HKN      -0.106000
     30 H1          -1.4510     2.8460     1.5000 hn         1 HKN       0.502000
     31 H2          -3.1390    -0.2180     1.8150 ha         1 HKN       0.148000
     32 H3           1.0220    -0.9180     0.4160 h4         1 HKN       0.180000
     33 H4           2.3670    -1.1270    -1.6360 h1         1 HKN       0.069700
     34 H5           2.8670     0.3300    -2.4620 h1         1 HKN       0.069700
     35 H7           7.3230    -1.0460    -2.7570 ha         1 HKN       0.119000
     36 H8          -5.0960    -4.9170    -1.5050 h1         1 HKN       0.048200
     37 H9          -4.1440    -4.7360    -0.0270 h1         1 HKN       0.048200
     38 H10         -4.8650    -2.5640    -2.0480 hc         1 HKN       0.056700
     39 H11         -3.2770    -3.1420    -1.5930 hc         1 HKN       0.056700
     40 H12         -6.8640    -2.8910     1.4970 h1         1 HKN       0.055700
     41 H13         -5.5060    -3.8870     1.9950 h1         1 HKN       0.055700
     42 H14         -4.9330    -1.3900     1.8210 ha         1 HKN       0.186000
     43 H15         -3.2000    -0.9130    -2.4190 h4         1 HKN       0.023100
     44 H16          0.2670     3.5400    -2.1710 h1         1 HKN       0.047367
     45 H17          0.0810     1.8490    -2.6910 h1         1 HKN       0.047367
     46 H18         -1.2480     2.9970    -2.9260 h1         1 HKN       0.047367
     47 H19          4.3900     2.3140    -1.0810 hc         1 HKN       0.058700
     48 H20          3.0270     2.8930    -2.0300 hc         1 HKN       0.058700
     49 H21          3.4770     3.7250    -0.5420 hc         1 HKN       0.058700
     50 H22          4.9770    -0.4740    -3.2370 ha         1 HKN       0.118000
     51 H23          8.0660    -1.3830    -0.4170 ha         1 HKN       0.118000
     52 H24          6.4340    -1.1540     1.4290 ha         1 HKN       0.119000
     53 C8           2.9310    -0.2020    -1.5120 c3         1 HKN       0.113900
     54 O2           0.1980     2.2400     3.4130 o          1 HKN      -0.531000
     55 H6           4.0950    -0.6010     0.9560 ha         1 HKN       0.118000
@<TRIPOS>BOND
     1     1     4 1   
     2     1    13 1   
     3     1    30 1   
     4     2     5 1   
     5     2     9 2   
     6     3     4 ar  
     7     3    15 ar  
     8     3    31 1   
     9     4    21 ar  
    10     5     6 2   
    11     5    13 1   
    12     6    25 1   
    13     6    32 1   
    14     7    26 ar  
    15     7    29 ar  
    16     7    55 1   
    17     8    27 ar  
    18     8    28 ar  
    19     8    35 1   
    20     9    24 1   
    21     9    25 1   
    22    10    12 1   
    23    10    15 1   
    24    10    18 2   
    25    11    12 1   
    26    11    16 1   
    27    11    36 1   
    28    11    37 1   
    29    12    38 1   
    30    12    39 1   
    31    13    14 2   
    32    13    54 2   
    33    15    19 ar  
    34    16    17 1   
    35    17    18 1   
    36    17    40 1   
    37    17    41 1   
    38    18    42 1   
    39    19    20 ar  
    40    19    43 1   
    41    20    21 ar  
    42    21    22 1   
    43    22    23 1   
    44    23    44 1   
    45    23    45 1   
    46    23    46 1   
    47    24    47 1   
    48    24    48 1   
    49    24    49 1   
    50    25    53 1   
    51    26    27 ar  
    52    26    53 1   
    53    27    50 1   
    54    28    29 ar  
    55    28    51 1   
    56    29    52 1   
    57    33    53 1   
    58    34    53 1   
@<TRIPOS>SUBSTRUCTURE
     1 HKN         1 TEMP              0 ****  ****    0 ROOT
