@<TRIPOS>MOLECULE
HKO
   80    84     1     0     0
SMALL
No Charge or Current Charge


@<TRIPOS>ATOM
      1 C2         196.2600    91.8710   -13.5230 ca         1 HKO       0.025000
      2 C3         197.3330    91.0200   -13.8250 ca         1 HKO      -0.184000
      3 C4         197.4580    90.5160   -15.1300 ca         1 HKO       0.384900
      4 C5         195.5520    91.6350   -15.8300 ca         1 HKO       0.430900
      5 C1         195.3570    92.1720   -14.5570 ca         1 HKO      -0.325500
      6 O1         193.9120    94.2010   -15.4040 o          1 HKO      -0.538500
      7 C11        190.3870    87.1910   -11.3550 c6         1 HKO       0.385300
      8 C12        192.0640    91.4650   -13.5170 c6         1 HKO       0.195500
      9 C13        190.9560    90.1210   -16.1540 c6         1 HKO       0.363300
     10 C21        189.0230    86.4180   -11.5230 c6         1 HKO       0.135500
     11 C22        192.9170    90.2510   -13.0550 c6         1 HKO      -0.083400
     12 C23        191.0630    90.6650   -17.6240 c6         1 HKO       0.149300
     13 C31        188.3550    86.2030   -10.1430 c6         1 HKO      -0.100400
     14 C32        192.3280    89.5510   -11.7930 c6         1 HKO       0.140500
     15 C33        189.6440    90.7830   -18.3090 c6         1 HKO       0.197500
     16 C41        189.3560    85.5500    -9.1550 c6         1 HKO      -0.100400
     17 C42        190.7580    89.6140   -11.7320 c6         1 HKO       0.130300
     18 C43        188.7230    89.5420   -18.0360 cx         1 HKO       0.071000
     19 C51        190.6730    86.3680    -9.0800 c6         1 HKO       0.166300
     20 C52        190.1300    89.6860   -13.1550 c6         1 HKO       0.141300
     21 C53        189.0800    88.5770   -16.9110 cx         1 HKO       0.120300
     22 C61        191.7400    85.6780    -8.1650 c3         1 HKO       0.156800
     23 C62        190.5840    91.0170   -13.8630 c6         1 HKO       0.176300
     24 C83        187.8970    89.4960   -16.7620 cx         1 HKO      -0.124400
     25 N1         196.5880    90.8140   -16.1220 nb         1 HKO      -0.684000
     26 N12        192.6950    92.1990   -14.6580 n7         1 HKO      -0.911300
     27 N21        188.0510    87.0650   -12.4570 n8         1 HKO      -1.008200
     28 N32        192.9180    90.1070   -10.5540 n8         1 HKO      -0.994200
     29 N33        188.9350    92.0760   -18.0710 n7         1 HKO      -0.852400
     30 N61        193.0290    86.4070    -8.0530 n8         1 HKO      -1.001200
     31 O11        190.1840    88.5570   -10.9120 os         1 HKO      -0.472000
     32 O2         193.8420    93.6420   -12.9140 o          1 HKO      -0.538500
     33 O23        191.9080    89.8110   -18.4440 oh         1 HKO      -0.719000
     34 O43        188.0840    89.0060   -19.1740 oh         1 HKO      -0.687000
     35 O51        191.2440    86.5160   -10.4080 os         1 HKO      -0.483000
     36 O52        188.6910    89.5830   -13.1000 oh         1 HKO      -0.736000
     37 O53        190.2560    88.8640   -16.1800 os         1 HKO      -0.436000
     38 O62        190.2670    91.0560   -15.2890 os         1 HKO      -0.443000
     39 S1         193.9620    93.2300   -14.3130 sy         1 HKO       1.159600
     40 H1         196.1370    92.2770   -12.5190 ha         1 HKO       0.149000
     41 H2         198.0600    90.7510   -13.0660 ha         1 HKO       0.131000
     42 H3         198.2830    89.8540   -15.3900 h4         1 HKO       0.023100
     43 H4         194.8670    91.8540   -16.6490 h4         1 HKO       0.025100
     44 H5         190.8890    87.1880   -12.3350 h2         1 HKO       0.076700
     45 H6         191.9680    92.1420   -12.6530 h1         1 HKO       0.077700
     46 H7         191.9740    89.9580   -15.7760 h2         1 HKO       0.059700
     47 H8         189.2510    85.4240   -11.9370 h1         1 HKO       0.062700
     48 H9         192.9850    89.5210   -13.8720 hc         1 HKO       0.051200
     49 H10        193.9490    90.5550   -12.8500 hc         1 HKO       0.051200
     50 H11        191.5180    91.6640   -17.5750 h1         1 HKO       0.052700
     51 H12        188.0140    87.1650    -9.7360 hc         1 HKO       0.051700
     52 H13        187.4650    85.5670   -10.2430 hc         1 HKO       0.051700
     53 H14        192.6490    88.5000   -11.8330 h1         1 HKO       0.034700
     54 H15        189.8390    90.7610   -19.3930 h1         1 HKO       0.042700
     55 H16        189.5740    84.5210    -9.4740 hc         1 HKO       0.051200
     56 H17        188.9020    85.4790    -8.1570 hc         1 HKO       0.051200
     57 H18        190.4950    90.5610   -11.2390 h1         1 HKO       0.098700
     58 H19        190.4610    87.3640    -8.6640 h1         1 HKO       0.065700
     59 H20        190.5320    88.8370   -13.7240 h1         1 HKO       0.037700
     60 H21        188.8790    87.5140   -17.0470 h1         1 HKO       0.105700
     61 H23        191.3210    85.5530    -7.1570 h1         1 HKO       0.035700
     62 H24        191.9450    84.6770    -8.5710 h1         1 HKO       0.035700
     63 H25        189.9550    91.8020   -13.4180 h1         1 HKO       0.093700
     64 H26        187.9730    90.3220   -16.0630 hc         1 HKO       0.097700
     65 H27        186.9100    89.0480   -16.8130 hc         1 HKO       0.097700
     66 H29        188.9030    94.1720   -18.4190 h1         1 HKO       0.030700
     67 H30        190.5260    93.4990   -18.1860 h1         1 HKO       0.030700
     68 H31        189.6590    93.2210   -19.7160 h1         1 HKO       0.030700
     69 H32        192.0250    92.8840   -15.0070 hn         1 HKO       0.511000
     70 H33        188.0440    86.5290   -13.3370 hn         1 HKO       0.412500
     71 H34        187.1020    86.8920   -12.0960 hn         1 HKO       0.412500
     72 H36        192.5430    89.5750    -9.7590 hn         1 HKO       0.405500
     73 H37        193.9200    89.8860   -10.5320 hn         1 HKO       0.405500
     74 H39        187.9970    91.9820   -18.4810 hn         1 HKO       0.427000
     75 H41        193.7240    85.7920    -7.6150 hn         1 HKO       0.398500
     76 H42        193.3890    86.5450    -9.0050 hn         1 HKO       0.398500
     77 H44        192.8210    89.8620   -18.0780 ho         1 HKO       0.510000
     78 H45        188.7940    88.6390   -19.7520 ho         1 HKO       0.511000
     79 H46        188.4880    88.6510   -12.7690 ho         1 HKO       0.553000
     80 C93        189.5400    93.3030   -18.6270 c3         1 HKO       0.145100
@<TRIPOS>BOND
     1     1     2 ar  
     2     1     5 ar  
     3     1    40 1   
     4     2     3 ar  
     5     2    41 1   
     6     3    25 ar  
     7     3    42 1   
     8     4     5 ar  
     9     4    25 ar  
    10     4    43 1   
    11     5    39 1   
    12     6    39 2   
    13     7    10 1   
    14     7    31 1   
    15     7    35 1   
    16     7    44 1   
    17     8    11 1   
    18     8    23 1   
    19     8    26 1   
    20     8    45 1   
    21     9    12 1   
    22     9    37 1   
    23     9    38 1   
    24     9    46 1   
    25    10    13 1   
    26    10    27 1   
    27    10    47 1   
    28    11    14 1   
    29    11    48 1   
    30    11    49 1   
    31    12    15 1   
    32    12    33 1   
    33    12    50 1   
    34    13    16 1   
    35    13    51 1   
    36    13    52 1   
    37    14    17 1   
    38    14    28 1   
    39    14    53 1   
    40    15    18 1   
    41    15    29 1   
    42    15    54 1   
    43    16    19 1   
    44    16    55 1   
    45    16    56 1   
    46    17    20 1   
    47    17    31 1   
    48    17    57 1   
    49    18    21 1   
    50    18    24 1   
    51    18    34 1   
    52    19    22 1   
    53    19    35 1   
    54    19    58 1   
    55    20    23 1   
    56    20    36 1   
    57    20    59 1   
    58    21    24 1   
    59    21    37 1   
    60    21    60 1   
    61    22    30 1   
    62    22    61 1   
    63    22    62 1   
    64    23    38 1   
    65    23    63 1   
    66    24    64 1   
    67    24    65 1   
    68    26    39 1   
    69    26    69 1   
    70    27    70 1   
    71    27    71 1   
    72    28    72 1   
    73    28    73 1   
    74    29    74 1   
    75    29    80 1   
    76    30    75 1   
    77    30    76 1   
    78    32    39 2   
    79    33    77 1   
    80    34    78 1   
    81    36    79 1   
    82    66    80 1   
    83    67    80 1   
    84    68    80 1   
@<TRIPOS>SUBSTRUCTURE
     1 HKO         1 TEMP              0 ****  ****    0 ROOT
