@<TRIPOS>MOLECULE
HKO
   80    84     1     0     0
SMALL
bcc


@<TRIPOS>ATOM
      1 C2         196.0830    91.8440   -13.6980 ca         1 HKO       0.007000
      2 C3         197.1320    91.0190   -14.0690 ca         1 HKO      -0.267300
      3 C4         197.0650    90.3680   -15.2910 ca         1 HKO       0.450200
      4 C5         195.0440    91.2830   -15.7860 ca         1 HKO       0.496200
      5 C1         195.0210    91.9690   -14.5770 ca         1 HKO      -0.390800
      6 O1         193.6470    94.0960   -15.2320 o          1 HKO      -0.609300
      7 C11        190.1730    87.1170   -11.3430 c6         1 HKO       0.338900
      8 C12        191.7670    91.3030   -13.4310 c6         1 HKO       0.195500
      9 C13        190.9040    89.9360   -16.1400 c6         1 HKO       0.316900
     10 C21        188.8550    86.3560   -11.1760 c6         1 HKO       0.135500
     11 C22        192.6790    90.1640   -13.0030 c6         1 HKO      -0.083400
     12 C23        191.2450    90.6480   -17.4520 c6         1 HKO       0.126100
     13 C31        188.5000    86.1980    -9.7000 c6         1 HKO      -0.100400
     14 C32        192.0840    89.4130   -11.8030 c6         1 HKO       0.140500
     15 C33        190.0220    90.9940   -18.3100 c6         1 HKO       0.197500
     16 C41        189.6840    85.6420    -8.9150 c6         1 HKO      -0.100400
     17 C42        190.5500    89.4530   -11.8380 c6         1 HKO       0.107100
     18 C43        189.0640    89.8120   -18.3660 cx         1 HKO       0.047800
     19 C51        190.9160    86.4950    -9.1620 c6         1 HKO       0.143100
     20 C52        190.0360    89.4360   -13.2860 c6         1 HKO       0.118100
     21 C53        189.2020    88.7410   -17.3340 cx         1 HKO       0.097100
     22 C61        192.1660    85.9570    -8.4960 c3         1 HKO       0.156800
     23 C62        190.3810    90.7880   -13.9180 c6         1 HKO       0.153100
     24 C83        188.0110    89.6520   -17.3080 cx         1 HKO      -0.124400
     25 N1         196.0450    90.4940   -16.1360 nb         1 HKO      -0.684000
     26 N12        192.3450    92.1280   -14.4890 n7         1 HKO      -0.856100
     27 N21        187.8160    87.0110   -11.9690 n8         1 HKO      -0.897800
     28 N32        192.5420    90.0210   -10.5610 n8         1 HKO      -0.883800
     29 N33        189.3550    92.2120   -17.8920 n7         1 HKO      -0.797200
     30 N61        193.2860    86.8710    -8.6650 n8         1 HKO      -0.890800
     31 O11        189.9430    88.4620   -11.0300 os         1 HKO      -0.425600
     32 O2         193.7910    93.4320   -12.8100 o          1 HKO      -0.609300
     33 O23        192.0330    89.7970   -18.2540 oh         1 HKO      -0.596800
     34 O43        188.6560    89.4300   -19.6420 oh         1 HKO      -0.564800
     35 O51        191.1880    86.5680   -10.5590 os         1 HKO      -0.436600
     36 O52        188.6530    89.2790   -13.3770 oh         1 HKO      -0.613800
     37 O53        190.1900    88.7570   -16.3540 os         1 HKO      -0.389600
     38 O62        190.2120    90.8330   -15.3180 os         1 HKO      -0.396600
     39 S1         193.6720    93.0600   -14.2120 sy         1 HKO       1.301200
     40 H1         196.0940    92.3630   -12.7490 ha         1 HKO       0.167000
     41 H2         197.9850    90.8790   -13.4200 ha         1 HKO       0.149000
     42 H3         197.8710    89.7150   -15.6040 h4         1 HKO       0.023100
     43 H4         194.2200    91.3670   -16.4860 h4         1 HKO       0.025100
     44 H5         190.5170    87.0020   -12.3780 h2         1 HKO       0.076700
     45 H6         191.5740    91.9200   -12.5460 h1         1 HKO       0.077700
     46 H7         191.8400    89.6150   -15.6680 h2         1 HKO       0.059700
     47 H8         189.0230    85.3610   -11.5980 h1         1 HKO       0.062700
     48 H9         192.8440    89.4720   -13.8320 hc         1 HKO       0.051200
     49 H10        193.6660    90.5300   -12.7150 hc         1 HKO       0.051200
     50 H11        191.7930    91.5620   -17.1960 h1         1 HKO       0.052700
     51 H12        188.2170    87.1730    -9.2870 hc         1 HKO       0.051700
     52 H13        187.6280    85.5480    -9.6010 hc         1 HKO       0.051700
     53 H14        192.4090    88.3690   -11.8990 h1         1 HKO       0.034700
     54 H15        190.4260    91.1060   -19.3310 h1         1 HKO       0.042700
     55 H16        189.8830    84.6080    -9.2160 hc         1 HKO       0.051200
     56 H17        189.4580    85.6260    -7.8470 hc         1 HKO       0.051200
     57 H18        190.2280    90.3920   -11.3720 h1         1 HKO       0.098700
     58 H19        190.7360    87.5030    -8.7650 h1         1 HKO       0.065700
     59 H20        190.5640    88.6370   -13.8300 h1         1 HKO       0.037700
     60 H21        189.0260    87.7210   -17.6600 h1         1 HKO       0.105700
     61 H23        191.9560    85.8660    -7.4280 h1         1 HKO       0.035700
     62 H24        192.3580    84.9380    -8.8640 h1         1 HKO       0.035700
     63 H25        189.6370    91.5000   -13.5500 h1         1 HKO       0.093700
     64 H26        187.9330    90.4100   -16.5400 hc         1 HKO       0.097700
     65 H27        187.0650    89.2240   -17.6150 hc         1 HKO       0.097700
     66 H29        189.4550    94.2840   -18.0310 h1         1 HKO       0.030700
     67 H30        190.9400    93.5360   -17.4790 h1         1 HKO       0.030700
     68 H31        190.5120    93.4680   -19.1910 h1         1 HKO       0.030700
     69 H32        191.6700    92.6420   -15.0460 hn         1 HKO       0.455800
     70 H33        187.1940    86.3230   -12.3720 hn         1 HKO       0.357300
     71 H34        187.2390    87.5910   -11.3700 hn         1 HKO       0.357300
     72 H36        192.1370    89.5250    -9.7740 hn         1 HKO       0.350300
     73 H37        193.5420    89.8830   -10.4720 hn         1 HKO       0.350300
     74 H39        188.4650    92.2610   -18.3700 hn         1 HKO       0.371800
     75 H41        194.0720    86.5440    -8.1180 hn         1 HKO       0.343300
     76 H42        193.5950    86.8550    -9.6280 hn         1 HKO       0.343300
     77 H44        192.8400    89.5740   -17.7790 ho         1 HKO       0.411000
     78 H45        189.4120    89.0480   -20.1010 ho         1 HKO       0.412000
     79 H46        188.3880    88.4150   -12.9790 ho         1 HKO       0.454000
     80 C93        190.1040    93.4210   -18.1710 c3         1 HKO       0.145100
@<TRIPOS>BOND
     1     1     2 ar  
     2     1     5 ar  
     3     1    40 1   
     4     2     3 ar  
     5     2    41 1   
     6     3    25 ar  
     7     3    42 1   
     8     4     5 ar  
     9     4    25 ar  
    10     4    43 1   
    11     5    39 1   
    12     6    39 2   
    13     7    10 1   
    14     7    31 1   
    15     7    35 1   
    16     7    44 1   
    17     8    11 1   
    18     8    23 1   
    19     8    26 1   
    20     8    45 1   
    21     9    12 1   
    22     9    37 1   
    23     9    38 1   
    24     9    46 1   
    25    10    13 1   
    26    10    27 1   
    27    10    47 1   
    28    11    14 1   
    29    11    48 1   
    30    11    49 1   
    31    12    15 1   
    32    12    33 1   
    33    12    50 1   
    34    13    16 1   
    35    13    51 1   
    36    13    52 1   
    37    14    17 1   
    38    14    28 1   
    39    14    53 1   
    40    15    18 1   
    41    15    29 1   
    42    15    54 1   
    43    16    19 1   
    44    16    55 1   
    45    16    56 1   
    46    17    20 1   
    47    17    31 1   
    48    17    57 1   
    49    18    21 1   
    50    18    24 1   
    51    18    34 1   
    52    19    22 1   
    53    19    35 1   
    54    19    58 1   
    55    20    23 1   
    56    20    36 1   
    57    20    59 1   
    58    21    24 1   
    59    21    37 1   
    60    21    60 1   
    61    22    30 1   
    62    22    61 1   
    63    22    62 1   
    64    23    38 1   
    65    23    63 1   
    66    24    64 1   
    67    24    65 1   
    68    26    39 1   
    69    26    69 1   
    70    27    70 1   
    71    27    71 1   
    72    28    72 1   
    73    28    73 1   
    74    29    74 1   
    75    29    80 1   
    76    30    75 1   
    77    30    76 1   
    78    32    39 2   
    79    33    77 1   
    80    34    78 1   
    81    36    79 1   
    82    66    80 1   
    83    67    80 1   
    84    68    80 1   
@<TRIPOS>SUBSTRUCTURE
     1 HKO         1 TEMP              0 ****  ****    0 ROOT
