@<TRIPOS>MOLECULE
HKP
   62    66     1     0     0
SMALL
No Charge or Current Charge


@<TRIPOS>ATOM
      1 C4          63.8480     2.3290     7.5650 ca         1 HKP       0.395900
      2 C5          63.3700     2.6640     8.8550 ca         1 HKP      -0.233000
      3 C6          63.6220     1.7220     9.8750 ca         1 HKP       0.135900
      4 N1          64.1720     0.5210     9.6120 nb         1 HKP      -0.252000
      5 N3          64.3930     1.1290     7.3070 nb         1 HKP      -0.292000
      6 CD2         67.0590     6.9490     7.7890 c5         1 HKP      -0.076900
      7 CAW         67.0020     8.4890     7.9900 c5         1 HKP      -0.077900
      8 CAX         65.7780     8.9540     7.1350 c5         1 HKP      -0.077900
      9 CD1         65.1810     7.6450     6.5440 c5         1 HKP      -0.076900
     10 CG          65.5610     6.5970     7.6210 c5         1 HKP      -0.070700
     11 CB          65.2990     5.1240     7.2160 c3         1 HKP      -0.087400
     12 CA          63.8200     4.7090     6.9180 c6         1 HKP       0.160500
     13 C           62.9380     5.0240     8.1670 c          1 HKP       0.561000
     14 O           62.3400     6.0910     8.2840 o          1 HKP      -0.544000
     15 NAJ         62.8660     3.9940     9.1390 n          1 HKP      -0.197400
     16 CAR         62.0840     4.2220    10.3780 c3         1 HKP       0.082300
     17 C2          64.5040     0.2800     8.3350 ca         1 HKP       0.399900
     18 NAK         65.0910    -0.9570     8.1030 nu         1 HKP      -0.932900
     19 CAL         65.5440    -1.6210     6.9540 ca         1 HKP       0.311000
     20 CAQ         66.5840    -2.5570     7.0790 ca         1 HKP      -0.115000
     21 CAP         67.0700    -3.2400     5.9520 ca         1 HKP       0.091000
     22 Cl1         68.3880    -4.3970     6.1530 cl         1 HKP      -0.193000
     23 CAO         66.5150    -3.0010     4.6770 ca         1 HKP       0.124100
     24 OBA         66.9920    -3.6660     3.5740 oh         1 HKP      -0.511100
     25 CAN         65.4580    -2.0730     4.5540 ca         1 HKP       0.091000
     26 Cl2         64.7160    -1.7400     2.9870 cl         1 HKP      -0.193000
     27 CAM         64.9740    -1.3980     5.6860 ca         1 HKP      -0.115000
     28 N           63.7840     3.2560     6.4950 nh         1 HKP      -0.775300
     29 CBC         63.6680     2.7520     5.0730 c5         1 HKP       0.241500
     30 CBG         65.1210     2.6080     4.4970 c5         1 HKP      -0.095400
     31 CBF         65.0720     3.3690     3.1430 c5         1 HKP      -0.082900
     32 CBE         64.1480     4.5600     3.4910 c5         1 HKP      -0.082900
     33 CBD         62.9630     3.8000     4.1470 c5         1 HKP      -0.095400
     34 H1          63.3750     1.9170    10.9170 h4         1 HKP       0.028100
     35 H3          67.6430     6.6830     6.8990 hc         1 HKP       0.043200
     36 H4          67.9340     8.9740     7.6770 hc         1 HKP       0.041950
     37 H5          66.8520     8.7410     9.0460 hc         1 HKP       0.041950
     38 H6          66.0690     9.6560     6.3450 hc         1 HKP       0.041950
     39 H7          65.0440     9.4720     7.7640 hc         1 HKP       0.041950
     40 H8          64.0990     7.7220     6.3900 hc         1 HKP       0.043200
     41 H9          65.6300     7.4060     5.5720 hc         1 HKP       0.043200
     42 H10         65.0210     6.7820     8.5580 hc         1 HKP       0.061700
     43 H11         65.6990     4.4730     8.0030 hc         1 HKP       0.054700
     44 H12         65.9060     4.9140     6.3300 hc         1 HKP       0.054700
     45 H13         63.4390     5.3770     6.1380 h1         1 HKP       0.098700
     46 H14         61.5330     3.3120    10.6460 h1         1 HKP       0.053033
     47 H15         62.7650     4.4850    11.1970 h1         1 HKP       0.053033
     48 H16         61.3540     5.0300    10.2470 h1         1 HKP       0.053033
     49 H17         65.3270    -1.4330     8.9750 hn         1 HKP       0.514000
     50 H18         67.0290    -2.7480     8.0510 ha         1 HKP       0.150500
     51 H19         67.7170    -4.2630     3.8630 ho         1 HKP       0.477000
     52 H20         64.1440    -0.7120     5.5680 ha         1 HKP       0.150500
     53 H21         63.1190     1.7990     5.0310 h1         1 HKP       0.079700
     54 H22         65.3930     1.5560     4.3580 hc         1 HKP       0.056950
     55 H23         65.8830     3.0330     5.1570 hc         1 HKP       0.056950
     56 H24         64.6480     2.7470     2.3450 hc         1 HKP       0.046950
     57 H25         66.0650     3.6930     2.8120 hc         1 HKP       0.046950
     58 H26         64.6310     5.2660     4.1760 hc         1 HKP       0.046950
     59 H27         63.8400     5.1240     2.6030 hc         1 HKP       0.046950
     60 H28         62.2400     4.4450     4.6560 hc         1 HKP       0.056950
     61 H29         62.3870     3.2760     3.3750 hc         1 HKP       0.056950
     62 H2          67.5180     6.4370     8.6430 hc         1 HKP       0.043200
@<TRIPOS>BOND
     1     1     2 ar  
     2     1     5 ar  
     3     1    28 1   
     4     2     3 ar  
     5     2    15 1   
     6     3     4 ar  
     7     3    34 1   
     8     4    17 ar  
     9     5    17 ar  
    10     6     7 1   
    11     6    10 1   
    12     6    35 1   
    13     6    62 1   
    14     7     8 1   
    15     7    36 1   
    16     7    37 1   
    17     8     9 1   
    18     8    38 1   
    19     8    39 1   
    20     9    10 1   
    21     9    40 1   
    22     9    41 1   
    23    10    11 1   
    24    10    42 1   
    25    11    12 1   
    26    11    43 1   
    27    11    44 1   
    28    12    13 1   
    29    12    28 1   
    30    12    45 1   
    31    13    14 2   
    32    13    15 1   
    33    15    16 1   
    34    16    46 1   
    35    16    47 1   
    36    16    48 1   
    37    17    18 1   
    38    18    19 1   
    39    18    49 1   
    40    19    20 ar  
    41    19    27 ar  
    42    20    21 ar  
    43    20    50 1   
    44    21    22 1   
    45    21    23 ar  
    46    23    24 1   
    47    23    25 ar  
    48    24    51 1   
    49    25    26 1   
    50    25    27 ar  
    51    27    52 1   
    52    28    29 1   
    53    29    30 1   
    54    29    33 1   
    55    29    53 1   
    56    30    31 1   
    57    30    54 1   
    58    30    55 1   
    59    31    32 1   
    60    31    56 1   
    61    31    57 1   
    62    32    33 1   
    63    32    58 1   
    64    32    59 1   
    65    33    60 1   
    66    33    61 1   
@<TRIPOS>SUBSTRUCTURE
     1 HKP         1 TEMP              0 ****  ****    0 ROOT
