@<TRIPOS>MOLECULE
HKP
   62    66     1     0     0
SMALL
abcg2


@<TRIPOS>ATOM
      1 C4          64.0760     2.3300     7.5980 ca         1 HKP       0.395900
      2 C5          63.7670     2.7090     8.9290 ca         1 HKP      -0.233000
      3 C6          64.0400     1.7780     9.9090 ca         1 HKP       0.135900
      4 N1          64.5360     0.5590     9.6460 nb         1 HKP      -0.252000
      5 N3          64.5340     1.1060     7.3280 nb         1 HKP      -0.292000
      6 CD2         66.7610     7.1780     7.7980 c5         1 HKP      -0.076900
      7 CAW         66.6320     8.7120     7.7690 c5         1 HKP      -0.077900
      8 CAX         65.3670     9.0100     6.9150 c5         1 HKP      -0.077900
      9 CD1         64.8080     7.6360     6.5010 c5         1 HKP      -0.076900
     10 CG          65.3320     6.6670     7.5700 c5         1 HKP      -0.070700
     11 CB          65.2760     5.1930     7.1920 c3         1 HKP      -0.087400
     12 CA          63.8550     4.6310     6.9590 c6         1 HKP       0.160500
     13 C           62.9870     4.8610     8.1900 c          1 HKP       0.561000
     14 O           62.2880     5.8640     8.2920 o          1 HKP      -0.544000
     15 NAJ         63.0950     3.9220     9.1690 n          1 HKP      -0.197400
     16 CAR         62.4190     4.1180    10.4470 c3         1 HKP       0.082300
     17 C2          64.7290     0.2740     8.3520 ca         1 HKP       0.399900
     18 NAK         65.1820    -1.0020     8.1100 nu         1 HKP      -0.932900
     19 CAL         65.4940    -1.6550     6.9190 ca         1 HKP       0.311000
     20 CAQ         66.0630    -2.9300     7.0210 ca         1 HKP      -0.115000
     21 CAP         66.3890    -3.6390     5.8810 ca         1 HKP       0.091000
     22 CL1         67.0940    -5.2320     6.0280 cl         1 HKP      -0.193000
     23 CAO         66.1820    -3.1300     4.5950 ca         1 HKP       0.124100
     24 OBA         66.5010    -3.7960     3.4600 oh         1 HKP      -0.511100
     25 CAN         65.6110    -1.8600     4.5210 ca         1 HKP       0.091000
     26 CL2         65.3180    -1.1630     2.9470 cl         1 HKP      -0.193000
     27 CAM         65.2650    -1.1280     5.6450 ca         1 HKP      -0.115000
     28 N           63.8670     3.2120     6.5940 nh         1 HKP      -0.775300
     29 CBC         63.9980     2.7640     5.1950 c5         1 HKP       0.241500
     30 CBG         65.4620     2.7370     4.6640 c5         1 HKP      -0.095400
     31 CBF         65.4830     3.6110     3.3940 c5         1 HKP      -0.082900
     32 CBE         64.2720     4.5430     3.5340 c5         1 HKP      -0.082900
     33 CBD         63.2220     3.6470     4.1970 c5         1 HKP      -0.095400
     34 H1          63.8380     1.9960    10.9500 h4         1 HKP       0.028100
     35 H3          67.3950     6.8340     6.9740 hc         1 HKP       0.043200
     36 H4          67.5260     9.1860     7.3620 hc         1 HKP       0.041950
     37 H5          66.5010     9.0970     8.7820 hc         1 HKP       0.041950
     38 H6          65.5940     9.6300     6.0460 hc         1 HKP       0.041950
     39 H7          64.6300     9.5540     7.5090 hc         1 HKP       0.041950
     40 H8          63.7210     7.6320     6.4170 hc         1 HKP       0.043200
     41 H9          65.2130     7.3380     5.5290 hc         1 HKP       0.043200
     42 H10         64.7630     6.8290     8.4910 hc         1 HKP       0.061700
     43 H11         65.7610     4.5910     7.9670 hc         1 HKP       0.054700
     44 H12         65.8450     5.0480     6.2730 hc         1 HKP       0.054700
     45 H13         63.3740     5.1830     6.1600 h1         1 HKP       0.098700
     46 H14         61.7520     3.2790    10.6490 h1         1 HKP       0.053033
     47 H15         63.1480     4.1960    11.2550 h1         1 HKP       0.053033
     48 H16         61.8470     5.0370    10.3890 h1         1 HKP       0.053033
     49 H17         65.3380    -1.5320     8.9540 hn         1 HKP       0.514000
     50 H18         66.2490    -3.3680     7.9930 ha         1 HKP       0.150500
     51 H19         66.8880    -4.6560     3.6860 ho         1 HKP       0.477000
     52 H20         64.8260    -0.1530     5.5360 ha         1 HKP       0.150500
     53 H21         63.5840     1.7590     5.1920 h1         1 HKP       0.079700
     54 H22         65.7800     1.7160     4.4570 hc         1 HKP       0.056950
     55 H23         66.1350     3.1280     5.4250 hc         1 HKP       0.056950
     56 H24         65.3560     2.9830     2.5090 hc         1 HKP       0.046950
     57 H25         66.4230     4.1520     3.2800 hc         1 HKP       0.046950
     58 H26         64.5190     5.3910     4.1770 hc         1 HKP       0.046950
     59 H27         63.9350     4.9460     2.5780 hc         1 HKP       0.046950
     60 H28         62.3950     4.1870     4.6580 hc         1 HKP       0.056950
     61 H29         62.7890     2.9870     3.4430 hc         1 HKP       0.056950
     62 H2          67.1990     6.8050     8.7260 hc         1 HKP       0.043200
@<TRIPOS>BOND
     1     1     2 ar  
     2     1     5 ar  
     3     1    28 1   
     4     2     3 ar  
     5     2    15 1   
     6     3     4 ar  
     7     3    34 1   
     8     4    17 ar  
     9     5    17 ar  
    10     6     7 1   
    11     6    10 1   
    12     6    35 1   
    13     6    62 1   
    14     7     8 1   
    15     7    36 1   
    16     7    37 1   
    17     8     9 1   
    18     8    38 1   
    19     8    39 1   
    20     9    10 1   
    21     9    40 1   
    22     9    41 1   
    23    10    11 1   
    24    10    42 1   
    25    11    12 1   
    26    11    43 1   
    27    11    44 1   
    28    12    13 1   
    29    12    28 1   
    30    12    45 1   
    31    13    14 2   
    32    13    15 1   
    33    15    16 1   
    34    16    46 1   
    35    16    47 1   
    36    16    48 1   
    37    17    18 1   
    38    18    19 1   
    39    18    49 1   
    40    19    20 ar  
    41    19    27 ar  
    42    20    21 ar  
    43    20    50 1   
    44    21    22 1   
    45    21    23 ar  
    46    23    24 1   
    47    23    25 ar  
    48    24    51 1   
    49    25    26 1   
    50    25    27 ar  
    51    27    52 1   
    52    28    29 1   
    53    29    30 1   
    54    29    33 1   
    55    29    53 1   
    56    30    31 1   
    57    30    54 1   
    58    30    55 1   
    59    31    32 1   
    60    31    56 1   
    61    31    57 1   
    62    32    33 1   
    63    32    58 1   
    64    32    59 1   
    65    33    60 1   
    66    33    61 1   
@<TRIPOS>SUBSTRUCTURE
     1 HKP         1 TEMP              0 ****  ****    0 ROOT
