@<TRIPOS>MOLECULE
HKQ
   36    38     1     0     0
SMALL
No Charge or Current Charge


@<TRIPOS>ATOM
      1 N1           1.6450     1.1610     1.2960 nu         1 HKQ      -0.856100
      2 C4           0.4630     1.4960     0.5950 ca         1 HKQ       0.198000
      3 C5           2.1630    -1.3440     0.2690 ca         1 HKQ      -0.311500
      4 C6           1.2620    -2.4280     0.1920 ca         1 HKQ      -0.013000
      5 C7           1.1860    -3.1950    -0.9830 ca         1 HKQ      -0.126500
      6 C8           2.0070    -2.8890    -2.0820 ca         1 HKQ      -0.049000
      7 C10          2.9880    -1.0400    -0.8340 ca         1 HKQ      -0.013000
      8 C13         -3.8330    -2.2680    -0.5370 ca         1 HKQ      -0.110000
      9 C15         -5.3680    -0.3850    -0.4820 ca         1 HKQ      -0.110000
     10 O1           3.6510    -0.0200     2.0510 o          1 HKQ      -0.528000
     11 S            2.2540    -0.3350     1.7530 sy         1 HKQ       1.145600
     12 O            1.3210    -0.8220     2.7730 o          1 HKQ      -0.528000
     13 C9           2.9080    -1.8130    -2.0050 ca         1 HKQ      -0.126500
     14 C            0.3140     2.7510    -0.0640 ca         1 HKQ       0.416000
     15 Cl           1.6100     3.9470    -0.0290 cl         1 HKQ      -0.165000
     16 C3          -0.6230     0.6020     0.5120 ca         1 HKQ      -0.045000
     17 C2          -1.7880     0.9580    -0.2140 cp         1 HKQ      -0.065000
     18 C1          -1.8080     2.2390    -0.8240 ca         1 HKQ       0.355900
     19 N           -0.7870     3.1240    -0.7570 nb         1 HKQ      -0.650000
     20 C11         -2.9470     0.0180    -0.3340 cp         1 HKQ      -0.048000
     21 C16         -4.2810     0.4990    -0.3690 ca         1 HKQ      -0.092500
     22 C14         -5.1450    -1.7690    -0.5660 ca         1 HKQ      -0.099000
     23 C12         -2.7460    -1.3840    -0.4220 ca         1 HKQ      -0.092500
     24 H1           2.4350     1.7930     1.2410 hn         1 HKQ       0.498000
     25 H2           0.6200    -2.6810     1.0350 ha         1 HKQ       0.135000
     26 H3           0.4910    -4.0290    -1.0420 ha         1 HKQ       0.121500
     27 H4           1.9460    -3.4840    -2.9900 ha         1 HKQ       0.119000
     28 H5           3.6870    -0.2050    -0.7890 ha         1 HKQ       0.135000
     29 H6          -3.6570    -3.3390    -0.6070 ha         1 HKQ       0.117500
     30 H7          -6.3840     0.0030    -0.5030 ha         1 HKQ       0.117500
     31 H8           3.5430    -1.5750    -2.8560 ha         1 HKQ       0.121500
     32 H9          -0.5840    -0.3560     1.0160 ha         1 HKQ       0.156000
     33 H10         -2.6740     2.5620    -1.4020 h4         1 HKQ       0.033100
     34 H11         -4.4790     1.5650    -0.2940 ha         1 HKQ       0.120500
     35 H12         -5.9870    -2.4530    -0.6550 ha         1 HKQ       0.116000
     36 H13         -1.7380    -1.7920    -0.4180 ha         1 HKQ       0.120500
@<TRIPOS>BOND
     1     1     2 1   
     2     1    11 1   
     3     1    24 1   
     4     2    14 ar  
     5     2    16 ar  
     6     3     4 ar  
     7     3     7 ar  
     8     3    11 1   
     9     4     5 ar  
    10     4    25 1   
    11     5     6 ar  
    12     5    26 1   
    13     6    13 ar  
    14     6    27 1   
    15     7    13 ar  
    16     7    28 1   
    17     8    22 ar  
    18     8    23 ar  
    19     8    29 1   
    20     9    21 ar  
    21     9    22 ar  
    22     9    30 1   
    23    10    11 2   
    24    11    12 2   
    25    13    31 1   
    26    14    15 1   
    27    14    19 ar  
    28    16    17 ar  
    29    16    32 1   
    30    17    18 ar  
    31    17    20 1   
    32    18    19 ar  
    33    18    33 1   
    34    20    21 ar  
    35    20    23 ar  
    36    21    34 1   
    37    22    35 1   
    38    23    36 1   
@<TRIPOS>SUBSTRUCTURE
     1 HKQ         1 TEMP              0 ****  ****    0 ROOT
