@<TRIPOS>MOLECULE
HKQ
   36    38     1     0     0
SMALL
abcg2


@<TRIPOS>ATOM
      1 N1           1.2100     0.7110     1.3160 nu         1 HKQ      -0.856100
      2 C4           0.1660     0.8110     0.3800 ca         1 HKQ       0.198000
      3 C5           2.5750    -1.2280    -0.0420 ca         1 HKQ      -0.311500
      4 C6           1.7480    -1.8670    -0.9570 ca         1 HKQ      -0.013000
      5 C7           2.2370    -2.1320    -2.2270 ca         1 HKQ      -0.126500
      6 C8           3.5340    -1.7680    -2.5650 ca         1 HKQ      -0.049000
      7 C10          3.8750    -0.8580    -0.3650 ca         1 HKQ      -0.013000
      8 C13         -4.8940    -1.8040     0.9980 ca         1 HKQ      -0.110000
      9 C15         -5.8770     0.0900    -0.1040 ca         1 HKQ      -0.110000
     10 O1           3.0110    -0.5580     2.4690 o          1 HKQ      -0.528000
     11 S            1.9230    -0.7900     1.5400 sy         1 HKQ       1.145600
     12 O            0.8520    -1.7120     1.8650 o          1 HKQ      -0.528000
     13 C9           4.3520    -1.1380    -1.6350 ca         1 HKQ      -0.126500
     14 C            0.3330     1.3920    -0.8790 ca         1 HKQ       0.416000
     15 CL           1.8830     2.0220    -1.3250 cl         1 HKQ      -0.165000
     16 C3          -1.0980     0.3350     0.6880 ca         1 HKQ      -0.045000
     17 C2          -2.1270     0.4230    -0.2450 cp         1 HKQ      -0.065000
     18 C1          -1.8250     1.0280    -1.4630 ca         1 HKQ       0.355900
     19 N           -0.6260     1.5100    -1.7580 nb         1 HKQ      -0.650000
     20 C11         -3.4740    -0.1000     0.0400 cp         1 HKQ      -0.048000
     21 C16         -4.6120     0.5920    -0.3730 ca         1 HKQ      -0.092500
     22 C14         -6.0220    -1.1090     0.5800 ca         1 HKQ      -0.099000
     23 C12         -3.6290    -1.3030     0.7300 ca         1 HKQ      -0.092500
     24 H1           1.9050     1.4500     1.2680 hn         1 HKQ       0.498000
     25 H2           0.7430    -2.1640    -0.6930 ha         1 HKQ       0.135000
     26 H3           1.6050    -2.6290    -2.9500 ha         1 HKQ       0.121500
     27 H4           3.9100    -1.9800    -3.5570 ha         1 HKQ       0.119000
     28 H5           4.5090    -0.3610     0.3560 ha         1 HKQ       0.135000
     29 H6          -4.9990    -2.7420     1.5280 ha         1 HKQ       0.117500
     30 H7          -6.7520     0.6430    -0.4220 ha         1 HKQ       0.117500
     31 H8           5.3640    -0.8620    -1.8980 ha         1 HKQ       0.121500
     32 H9          -1.2800    -0.0790     1.6700 ha         1 HKQ       0.156000
     33 H10         -2.5770     1.1160    -2.2380 h4         1 HKQ       0.033100
     34 H11         -4.5140     1.5380    -0.8900 ha         1 HKQ       0.120500
     35 H12         -7.0090    -1.5010     0.7880 ha         1 HKQ       0.116000
     36 H13         -2.7560    -1.8640     1.0420 ha         1 HKQ       0.120500
@<TRIPOS>BOND
     1     1     2 1   
     2     1    11 1   
     3     1    24 1   
     4     2    14 ar  
     5     2    16 ar  
     6     3     4 ar  
     7     3     7 ar  
     8     3    11 1   
     9     4     5 ar  
    10     4    25 1   
    11     5     6 ar  
    12     5    26 1   
    13     6    13 ar  
    14     6    27 1   
    15     7    13 ar  
    16     7    28 1   
    17     8    22 ar  
    18     8    23 ar  
    19     8    29 1   
    20     9    21 ar  
    21     9    22 ar  
    22     9    30 1   
    23    10    11 2   
    24    11    12 2   
    25    13    31 1   
    26    14    15 1   
    27    14    19 ar  
    28    16    17 ar  
    29    16    32 1   
    30    17    18 ar  
    31    17    20 1   
    32    18    19 ar  
    33    18    33 1   
    34    20    21 ar  
    35    20    23 ar  
    36    21    34 1   
    37    22    35 1   
    38    23    36 1   
@<TRIPOS>SUBSTRUCTURE
     1 HKQ         1 TEMP              0 ****  ****    0 ROOT
