@<TRIPOS>MOLECULE
HKR
   20    20     1     0     0
SMALL
abcg2


@<TRIPOS>ATOM
      1 C10         31.2210    20.4560    -9.1900 c3         1 HKR      -0.092400
      2 C11         32.3380    20.6790    -8.1810 c3         1 HKR      -0.087100
      3 C01         33.1420    16.4900    -9.1130 cc         1 HKR       0.200900
      4 C02         33.2180    17.7400    -9.6590 cd         1 HKR      -0.298000
      5 N03         31.9310    18.1590    -9.8190 na         1 HKR      -0.146500
      6 C04         31.1220    17.1620    -9.3600 cd         1 HKR       0.362000
      7 N05         31.8420    16.1430    -8.9340 nc         1 HKR      -0.678000
      8 C06         29.6050    17.1720    -9.3640 c          1 HKR       0.636500
      9 O07         29.0460    18.1200    -9.9510 o          1 HKR      -0.704000
     10 O08         29.0650    16.2180    -8.7830 o          1 HKR      -0.704000
     11 C09         31.5840    19.4850   -10.3050 c3         1 HKR       0.094600
     12 H1          30.9590    21.4060    -9.6640 hc         1 HKR       0.054700
     13 H2          30.3200    20.1050    -8.6870 hc         1 HKR       0.054700
     14 H3          32.0550    21.4350    -7.4490 hc         1 HKR       0.025033
     15 H4          32.5750    19.7670    -7.6320 hc         1 HKR       0.025033
     16 H5          33.2540    21.0160    -8.6710 hc         1 HKR       0.025033
     17 H9          32.4570    19.8570   -10.8450 h1         1 HKR       0.052700
     18 H10         30.7660    19.3980   -11.0130 h1         1 HKR       0.052700
     19 H6          33.9560    15.8310    -8.8490 h4         1 HKR       0.004100
     20 H7          34.0570    18.3570    -9.9400 h4         1 HKR       0.123000
@<TRIPOS>BOND
     1     1     2 1   
     2     1    11 1   
     3     1    12 1   
     4     1    13 1   
     5     2    14 1   
     6     2    15 1   
     7     2    16 1   
     8     3     4 2   
     9     3     7 1   
    10     3    19 1   
    11     4     5 1   
    12     4    20 1   
    13     5     6 1   
    14     5    11 1   
    15     6     7 2   
    16     6     8 1   
    17     8     9 1   
    18     8    10 1   
    19    11    17 1   
    20    11    18 1   
@<TRIPOS>SUBSTRUCTURE
     1 HKR         1 TEMP              0 ****  ****    0 ROOT
