@<TRIPOS>MOLECULE
HKR
   20    20     1     0     0
SMALL
No Charge or Current Charge


@<TRIPOS>ATOM
      1 C10         31.2290    20.4910    -9.1580 c3         1 HKR      -0.092400
      2 C11         32.4010    20.8180    -8.2090 c3         1 HKR      -0.087100
      3 C01         33.1450    16.4280    -9.1180 cc         1 HKR       0.200900
      4 C02         33.2520    17.7000    -9.5950 cd         1 HKR      -0.298000
      5 N03         31.9520    18.1420    -9.7750 na         1 HKR      -0.146500
      6 C04         31.0900    17.0970    -9.4000 cd         1 HKR       0.362000
      7 N05         31.8420    16.0550    -8.9970 nc         1 HKR      -0.678000
      8 C06         29.5490    17.0850    -9.4270 c          1 HKR       0.636500
      9 O07         28.9330    18.0710    -9.8200 o          1 HKR      -0.704000
     10 O08         28.9480    16.0790    -9.0560 o          1 HKR      -0.704000
     11 C09         31.5850    19.4820   -10.2740 c3         1 HKR       0.094600
     12 H1          30.8880    21.4220    -9.6270 hc         1 HKR       0.054700
     13 H2          30.3860    20.1080    -8.5700 hc         1 HKR       0.054700
     14 H3          32.1000    21.5780    -7.4790 hc         1 HKR       0.025033
     15 H4          32.7200    19.9250    -7.6570 hc         1 HKR       0.025033
     16 H5          33.2600    21.2030    -8.7710 hc         1 HKR       0.025033
     17 H9          32.4280    19.8780   -10.8540 h1         1 HKR       0.052700
     18 H10         30.7410    19.3880   -10.9690 h1         1 HKR       0.052700
     19 H6          33.9370    15.7420    -8.8480 h4         1 HKR       0.004100
     20 H7          34.1270    18.3020    -9.8060 h4         1 HKR       0.123000
@<TRIPOS>BOND
     1     1     2 1   
     2     1    11 1   
     3     1    12 1   
     4     1    13 1   
     5     2    14 1   
     6     2    15 1   
     7     2    16 1   
     8     3     4 2   
     9     3     7 1   
    10     3    19 1   
    11     4     5 1   
    12     4    20 1   
    13     5     6 1   
    14     5    11 1   
    15     6     7 2   
    16     6     8 1   
    17     8     9 1   
    18     8    10 1   
    19    11    17 1   
    20    11    18 1   
@<TRIPOS>SUBSTRUCTURE
     1 HKR         1 TEMP              0 ****  ****    0 ROOT
