@<TRIPOS>MOLECULE
HKS
   35    35     1     0     0
SMALL
bcc


@<TRIPOS>ATOM
      1 C02         -4.2690    -2.4740     0.0370 c          1 HKS       0.902600
      2 C04         -3.2430    -1.3790     0.4380 c3         1 HKS       0.019500
      3 C06         -2.5800    -0.7900    -0.8130 c3         1 HKS      -0.022100
      4 C07         -1.7470     0.4300    -0.5390 ca         1 HKS      -0.023300
      5 C08         -0.3880     0.3300    -0.2720 ca         1 HKS      -0.121000
      6 C09          0.3800     1.4640    -0.0050 ca         1 HKS       0.034900
      7 C11          2.5760    -0.2650    -0.0250 c3         1 HKS       0.030700
      8 C12          4.0950    -0.3550    -0.0760 c3         1 HKS       0.016500
      9 C13          4.5190    -1.8120    -0.4180 c          1 HKS       0.908600
     10 C17         -0.2300     2.7170     0.0080 ca         1 HKS       0.085100
     11 C19         -1.5950     2.8220    -0.2560 ca         1 HKS       0.032100
     12 C21         -2.3440     1.6870    -0.5280 ca         1 HKS      -0.199000
     13 N05         -2.2320    -1.7870     1.3980 n8         1 HKS      -0.878800
     14 N16          4.6600     0.2040     1.1390 n8         1 HKS      -0.881800
     15 O01         -5.1220    -2.1400    -0.8110 o          1 HKS      -0.846800
     16 O03         -4.1820    -3.5810     0.6030 o          1 HKS      -0.846800
     17 O14          3.9530    -2.3250    -1.4060 o          1 HKS      -0.837300
     18 O15          5.3940    -2.3320     0.2960 o          1 HKS      -0.837300
     19 O18          0.5380     3.8000     0.2740 oh         1 HKS      -0.493100
     20 O20         -2.1100     4.0750    -0.2350 oh         1 HKS      -0.541100
     21 S10          2.1060     1.4460     0.3630 ss         1 HKS      -0.241000
     22 H1          -3.8280    -0.5720     0.9000 h1         1 HKS       0.037700
     23 H2          -1.9620    -1.5620    -1.2840 hc         1 HKS       0.050700
     24 H3          -3.3660    -0.5440    -1.5270 hc         1 HKS       0.050700
     25 H4           0.0700    -0.6490    -0.2720 ha         1 HKS       0.153000
     26 H5           2.1550    -0.5480    -0.9880 h1         1 HKS       0.069200
     27 H6           2.1740    -0.9360     0.7380 h1         1 HKS       0.069200
     28 H7           4.4320     0.2730    -0.9110 h1         1 HKS       0.047700
     29 H8          -3.4050     1.7840    -0.7360 ha         1 HKS       0.124000
     30 H9          -2.6900    -2.3210     2.1260 hn         1 HKS       0.327300
     31 H10         -1.6130    -2.4550     0.9520 hn         1 HKS       0.327300
     32 H12          4.3690    -0.3650     1.9260 hn         1 HKS       0.325800
     33 H13          5.6660     0.0960     1.1060 hn         1 HKS       0.325800
     34 H17          0.0090     4.6050     0.2420 ho         1 HKS       0.414000
     35 H18         -3.0550     4.0580    -0.4200 ho         1 HKS       0.418000
@<TRIPOS>BOND
     1     1     2 1   
     2     1    15 1   
     3     1    16 1   
     4     2     3 1   
     5     2    13 1   
     6     2    22 1   
     7     3     4 1   
     8     3    23 1   
     9     3    24 1   
    10     4     5 ar  
    11     4    12 ar  
    12     5     6 ar  
    13     5    25 1   
    14     6    10 ar  
    15     6    21 1   
    16     7     8 1   
    17     7    21 1   
    18     7    26 1   
    19     7    27 1   
    20     8     9 1   
    21     8    14 1   
    22     8    28 1   
    23     9    17 1   
    24     9    18 1   
    25    10    11 ar  
    26    10    19 1   
    27    11    12 ar  
    28    11    20 1   
    29    12    29 1   
    30    13    30 1   
    31    13    31 1   
    32    14    32 1   
    33    14    33 1   
    34    19    34 1   
    35    20    35 1   
@<TRIPOS>SUBSTRUCTURE
     1 HKS         1 TEMP              0 ****  ****    0 ROOT
