@<TRIPOS>MOLECULE
HKS
   35    35     1     0     0
SMALL
No Charge or Current Charge


@<TRIPOS>ATOM
      1 C02         -4.4650    -2.4340     0.0330 c          1 HKS       0.692000
      2 C04         -3.4780    -1.2860     0.4980 c3         1 HKS       0.019500
      3 C06         -2.4790    -0.9520    -0.6440 c3         1 HKS      -0.022100
      4 C07         -1.6940     0.3410    -0.4250 ca         1 HKS      -0.023300
      5 C08         -0.3230     0.3000    -0.0970 ca         1 HKS      -0.103000
      6 C09          0.4140     1.4900     0.0890 ca         1 HKS      -0.092000
      7 C11          2.7890    -0.1790    -0.1260 c3         1 HKS       0.078600
      8 C12          4.3350    -0.2850    -0.0410 c3         1 HKS       0.016500
      9 C13          4.8160    -1.5070    -0.9180 c          1 HKS       0.698000
     10 C17         -0.2480     2.7310    -0.0500 ca         1 HKS       0.085100
     11 C19         -1.6170     2.7760    -0.3820 ca         1 HKS       0.032100
     12 C21         -2.3360     1.5860    -0.5720 ca         1 HKS      -0.181000
     13 N05         -2.7550    -1.5260     1.8030 n8         1 HKS      -0.989200
     14 N16          4.8290    -0.2650     1.3920 n8         1 HKS      -0.992200
     15 O01         -5.6340    -2.1430    -0.1800 o          1 HKS      -0.741500
     16 O03         -4.0510    -3.5860     0.0120 o          1 HKS      -0.741500
     17 O14          5.5340    -1.2830    -1.8820 o          1 HKS      -0.732000
     18 O15          4.5240    -2.6380    -0.5490 o          1 HKS      -0.732000
     19 O18          0.4150     3.9120     0.1240 oh         1 HKS      -0.532100
     20 O20         -2.2490     3.9830    -0.5220 oh         1 HKS      -0.580100
     21 S10          2.1660     1.4480     0.5120 ss         1 HKS      -0.162000
     22 H1          -4.1010    -0.3930     0.6480 h1         1 HKS       0.037700
     23 H2          -1.7970    -1.7990    -0.7860 hc         1 HKS       0.050700
     24 H3          -3.0420    -0.8670    -1.5810 hc         1 HKS       0.050700
     25 H4           0.1540    -0.6680     0.0250 ha         1 HKS       0.135000
     26 H5           2.4800    -0.2720    -1.1750 h1         1 HKS       0.069200
     27 H6           2.3310    -0.9980     0.4430 h1         1 HKS       0.069200
     28 H7           4.7400     0.6130    -0.5280 h1         1 HKS       0.047700
     29 H8          -3.3910     1.6200    -0.8320 ha         1 HKS       0.106000
     30 H9          -3.4490    -1.6820     2.5440 hn         1 HKS       0.382500
     31 H10         -2.2740    -2.4310     1.7420 hn         1 HKS       0.382500
     32 H12          4.5790    -1.1570     1.8370 hn         1 HKS       0.381000
     33 H13          5.8570    -0.2840     1.3930 hn         1 HKS       0.381000
     34 H17         -0.2560     4.6140    -0.0290 ho         1 HKS       0.453000
     35 H18         -3.1910     3.8200    -0.7510 ho         1 HKS       0.457000
@<TRIPOS>BOND
     1     1     2 1   
     2     1    15 1   
     3     1    16 1   
     4     2     3 1   
     5     2    13 1   
     6     2    22 1   
     7     3     4 1   
     8     3    23 1   
     9     3    24 1   
    10     4     5 ar  
    11     4    12 ar  
    12     5     6 ar  
    13     5    25 1   
    14     6    10 ar  
    15     6    21 1   
    16     7     8 1   
    17     7    21 1   
    18     7    26 1   
    19     7    27 1   
    20     8     9 1   
    21     8    14 1   
    22     8    28 1   
    23     9    17 1   
    24     9    18 1   
    25    10    11 ar  
    26    10    19 1   
    27    11    12 ar  
    28    11    20 1   
    29    12    29 1   
    30    13    30 1   
    31    13    31 1   
    32    14    32 1   
    33    14    33 1   
    34    19    34 1   
    35    20    35 1   
@<TRIPOS>SUBSTRUCTURE
     1 HKS         1 TEMP              0 ****  ****    0 ROOT
