@<TRIPOS>MOLECULE
HKT
   40    42     1     0     0
SMALL
bcc


@<TRIPOS>ATOM
      1 CAL          0.6570    -0.9320    -0.0280 cc         1 HKT      -0.049300
      2 CAM          1.6390     0.0240    -0.5540 ca         1 HKT      -0.101000
      3 CAN         -1.1700     1.7490     0.4920 ca         1 HKT      -0.426800
      4 CAO         -1.0050    -1.7710     1.2600 cc         1 HKT      -0.121300
      5 CAP         -0.7000    -2.7110     0.3260 cd         1 HKT      -0.134300
      6 CAQ          0.3400    -2.1720    -0.4900 cd         1 HKT      -0.119000
      7 CAR          2.8200     0.3000     0.1210 ca         1 HKT       0.192900
      8 CAS          1.4410     0.6420    -1.7880 ca         1 HKT      -0.081000
      9 CAT         -2.4900     1.4960     0.1370 ca         1 HKT       0.506200
     10 CAU         -0.4470     2.7300    -0.1700 ca         1 HKT       0.020000
     11 CAV         -1.3330    -4.0540     0.1820 c3         1 HKT       0.226100
     12 CAW          3.7690     1.1740    -0.3670 ca         1 HKT      -0.176000
     13 CAX          2.3820     1.5200    -2.3060 ca         1 HKT      -0.163000
     14 CAY         -1.0900     3.4220    -1.1810 ca         1 HKT      -0.270300
     15 CAZ          3.5400     1.7900    -1.5900 ca         1 HKT      -0.088000
     16 CBA         -2.4050     3.0970    -1.4760 ca         1 HKT       0.460200
     17 CBB         -2.4810    -5.5320    -1.3340 c3         1 HKT       0.143100
     18 FAB          3.0510    -0.3250     1.2820 f          1 HKT      -0.121900
     19 NAI         -0.1630    -0.6880     1.0720 na         1 HKT      -0.196600
     20 NAJ         -3.0950     2.1580    -0.8350 nb         1 HKT      -0.679000
     21 NAK         -1.8720    -4.2300    -1.1530 n7         1 HKT      -0.801200
     22 OAC          0.8530     1.3980     2.1070 o          1 HKT      -0.588800
     23 OAD         -1.4100     0.5750     2.8270 o          1 HKT      -0.588800
     24 SAA         -0.4300     0.8170     1.7900 sy         1 HKT       1.332300
     25 H1          -1.7380    -1.7860     2.0490 h4         1 HKT       0.191000
     26 H2           0.8250    -2.6630    -1.3200 ha         1 HKT       0.164000
     27 H3           0.5310     0.4370    -2.3360 ha         1 HKT       0.142000
     28 H4          -3.0750     0.7420     0.6510 h4         1 HKT       0.038100
     29 H5           0.5800     2.9510     0.0900 ha         1 HKT       0.168000
     30 H6          -0.5810    -4.8330     0.3440 h1         1 HKT       0.037700
     31 H7          -2.0860    -4.1880     0.9750 h1         1 HKT       0.037700
     32 H8           4.6760     1.3620     0.1940 ha         1 HKT       0.156000
     33 H9           2.2060     1.9960    -3.2610 ha         1 HKT       0.138000
     34 H10         -0.5800     4.1990    -1.7320 ha         1 HKT       0.151000
     35 H11          4.2770     2.4770    -1.9850 ha         1 HKT       0.137000
     36 H12         -2.9280     3.6210    -2.2670 h4         1 HKT       0.025100
     37 H13         -1.7190    -6.3110    -1.2600 h1         1 HKT       0.029700
     38 H14         -3.2640    -5.7700    -0.6000 h1         1 HKT       0.029700
     39 H15         -2.9230    -5.5970    -2.3280 h1         1 HKT       0.029700
     40 H16         -2.5660    -3.5130    -1.3200 hn         1 HKT       0.352800
@<TRIPOS>BOND
     1     1     2 1   
     2     1     6 2   
     3     1    19 1   
     4     2     7 ar  
     5     2     8 ar  
     6     3     9 ar  
     7     3    10 ar  
     8     3    24 1   
     9     4     5 2   
    10     4    19 1   
    11     4    25 1   
    12     5     6 1   
    13     5    11 1   
    14     6    26 1   
    15     7    12 ar  
    16     7    18 1   
    17     8    13 ar  
    18     8    27 1   
    19     9    20 ar  
    20     9    28 1   
    21    10    14 ar  
    22    10    29 1   
    23    11    21 1   
    24    11    30 1   
    25    11    31 1   
    26    12    15 ar  
    27    12    32 1   
    28    13    15 ar  
    29    13    33 1   
    30    14    16 ar  
    31    14    34 1   
    32    15    35 1   
    33    16    20 ar  
    34    16    36 1   
    35    17    21 1   
    36    17    37 1   
    37    17    38 1   
    38    17    39 1   
    39    19    24 1   
    40    21    40 1   
    41    22    24 2   
    42    23    24 2   
@<TRIPOS>SUBSTRUCTURE
     1 HKT         1 TEMP              0 ****  ****    0 ROOT
