@<TRIPOS>MOLECULE
HKT
   40    42     1     0     0
SMALL
No Charge or Current Charge


@<TRIPOS>ATOM
      1 CAL          0.4770    -0.9510    -0.0220 cc         1 HKT      -0.100000
      2 CAM          1.3770     0.0250    -0.6250 ca         1 HKT      -0.101000
      3 CAN         -1.0660     1.9120     0.5130 ca         1 HKT      -0.361500
      4 CAO         -1.1360    -2.0050     1.1920 cc         1 HKT      -0.154000
      5 CAP         -0.5990    -2.9060     0.3010 cd         1 HKT      -0.134300
      6 CAQ          0.3950    -2.2420    -0.4540 cd         1 HKT      -0.101000
      7 CAR          2.5600     0.4330     0.0270 ca         1 HKT       0.228000
      8 CAS          1.0570     0.5790    -1.8790 ca         1 HKT      -0.063000
      9 CAT         -2.1950     1.7700    -0.2940 ca         1 HKT       0.440900
     10 CAU         -0.1390     2.9370     0.2520 ca         1 HKT       0.038000
     11 CAV         -0.9940    -4.3500     0.1390 c3         1 HKT       0.226100
     12 CAW          3.4000     1.3940    -0.5590 ca         1 HKT      -0.158000
     13 CAX          1.8980     1.5420    -2.4650 ca         1 HKT      -0.145000
     14 CAY         -0.4030     3.7880    -0.8290 ca         1 HKT      -0.187000
     15 CAZ          3.0690     1.9540    -1.8050 ca         1 HKT      -0.070000
     16 CBA         -1.5620     3.5840    -1.5930 ca         1 HKT       0.394900
     17 CBB         -2.5110    -5.8700    -1.1170 c3         1 HKT       0.143100
     18 FAB          2.9040    -0.1060     1.2180 f          1 HKT      -0.157000
     19 NAI         -0.4700    -0.7850     0.9910 na         1 HKT      -0.095200
     20 NAJ         -2.4490     2.5950    -1.3360 nb         1 HKT      -0.679000
     21 NAK         -2.0100    -4.4970    -0.9170 n7         1 HKT      -0.856400
     22 OAC          0.3890     1.1120     2.5340 o          1 HKT      -0.518000
     23 OAD         -2.1090     0.5080     2.5340 o          1 HKT      -0.518000
     24 SAA         -0.8400     0.7270     1.8240 sy         1 HKT       1.190700
     25 H1          -1.9220    -2.1290     1.9300 h4         1 HKT       0.173000
     26 H2           0.9910    -2.6820    -1.2470 ha         1 HKT       0.146000
     27 H3           0.1490     0.2720    -2.3930 ha         1 HKT       0.124000
     28 H4          -2.9230     0.9770    -0.1200 h4         1 HKT       0.038100
     29 H5           0.7610     3.0700     0.8530 ha         1 HKT       0.150000
     30 H6          -0.0990    -4.9390    -0.1040 h1         1 HKT       0.037700
     31 H7          -1.3810    -4.7180     1.0990 h1         1 HKT       0.037700
     32 H8           4.3080     1.7010    -0.0460 ha         1 HKT       0.138000
     33 H9           1.6400     1.9720    -3.4300 ha         1 HKT       0.120000
     34 H10          0.2790     4.5940    -1.0810 ha         1 HKT       0.133000
     35 H11          3.7180     2.6990    -2.2590 ha         1 HKT       0.119000
     36 H12         -1.7890     4.2310    -2.4390 h4         1 HKT       0.025100
     37 H13         -1.6930    -6.5490    -1.3950 h1         1 HKT       0.029700
     38 H14         -2.9800    -6.2540    -0.2010 h1         1 HKT       0.029700
     39 H15         -3.2600    -5.8950    -1.9190 h1         1 HKT       0.029700
     40 H16         -2.8040    -3.8980    -0.6620 hn         1 HKT       0.408000
@<TRIPOS>BOND
     1     1     2 1   
     2     1     6 2   
     3     1    19 1   
     4     2     7 ar  
     5     2     8 ar  
     6     3     9 ar  
     7     3    10 ar  
     8     3    24 1   
     9     4     5 2   
    10     4    19 1   
    11     4    25 1   
    12     5     6 1   
    13     5    11 1   
    14     6    26 1   
    15     7    12 ar  
    16     7    18 1   
    17     8    13 ar  
    18     8    27 1   
    19     9    20 ar  
    20     9    28 1   
    21    10    14 ar  
    22    10    29 1   
    23    11    21 1   
    24    11    30 1   
    25    11    31 1   
    26    12    15 ar  
    27    12    32 1   
    28    13    15 ar  
    29    13    33 1   
    30    14    16 ar  
    31    14    34 1   
    32    15    35 1   
    33    16    20 ar  
    34    16    36 1   
    35    17    21 1   
    36    17    37 1   
    37    17    38 1   
    38    17    39 1   
    39    19    24 1   
    40    21    40 1   
    41    22    24 2   
    42    23    24 2   
@<TRIPOS>SUBSTRUCTURE
     1 HKT         1 TEMP              0 ****  ****    0 ROOT
