@<TRIPOS>MOLECULE
HKU
   20    20     1     0     0
SMALL
bcc


@<TRIPOS>ATOM
      1 C10         14.9060   -19.4890    16.8910 c3         1 HKU      -0.096100
      2 C11         12.9670   -20.9360    17.5980 c3         1 HKU      -0.096100
      3 C01         11.5580   -16.9350    17.4330 cc         1 HKU       0.265200
      4 C02         12.4070   -17.8790    16.9300 cd         1 HKU      -0.328600
      5 N03         12.9350   -18.5220    18.0110 na         1 HKU      -0.166900
      6 C04         12.3790   -17.9620    19.1250 cd         1 HKU       0.362000
      7 N05         11.5460   -16.9970    18.7880 nc         1 HKU      -0.679000
      8 C06         12.6680   -18.3330    20.5700 c          1 HKU       0.848100
      9 O07         11.8580   -17.8930    21.3990 o          1 HKU      -0.807800
     10 O08         13.6860   -19.0180    20.7960 o          1 HKU      -0.807800
     11 C09         13.8000   -19.7010    17.9130 c3         1 HKU       0.045000
     12 H1          15.4790   -18.5860    17.1020 hc         1 HKU       0.031200
     13 H2          15.5910   -20.3360    16.9290 hc         1 HKU       0.031200
     14 H3          14.5250   -19.4260    15.8710 hc         1 HKU       0.031200
     15 H4          12.1910   -21.0900    18.3480 hc         1 HKU       0.031200
     16 H5          12.4860   -20.8540    16.6210 hc         1 HKU       0.031200
     17 H6          13.6010   -21.8230    17.5840 hc         1 HKU       0.031200
     18 H10         14.2470   -19.8160    18.8950 h1         1 HKU       0.129700
     19 H7          10.9660   -16.2180    16.8840 h4         1 HKU       0.003100
     20 H8          12.6610   -18.1390    15.9160 h4         1 HKU       0.141000
@<TRIPOS>BOND
     1     1    11 1   
     2     1    12 1   
     3     1    13 1   
     4     1    14 1   
     5     2    11 1   
     6     2    15 1   
     7     2    16 1   
     8     2    17 1   
     9     3     4 2   
    10     3     7 1   
    11     3    19 1   
    12     4     5 1   
    13     4    20 1   
    14     5     6 1   
    15     5    11 1   
    16     6     7 2   
    17     6     8 1   
    18     8     9 1   
    19     8    10 1   
    20    11    18 1   
@<TRIPOS>SUBSTRUCTURE
     1 HKU         1 TEMP              0 ****  ****    0 ROOT
