@<TRIPOS>MOLECULE
HKU
   20    20     1     0     0
SMALL
No Charge or Current Charge


@<TRIPOS>ATOM
      1 C10         14.8950   -19.5000    16.7650 c3         1 HKU      -0.096100
      2 C11         13.0600   -20.9930    17.7270 c3         1 HKU      -0.096100
      3 C01         11.6080   -16.8310    17.4180 cc         1 HKU       0.199900
      4 C02         12.4240   -17.7850    16.8900 cd         1 HKU      -0.296000
      5 N03         12.9070   -18.5100    17.9710 na         1 HKU      -0.145500
      6 C04         12.3250   -17.9650    19.1340 cd         1 HKU       0.362000
      7 N05         11.5430   -16.9310    18.7710 nc         1 HKU      -0.679000
      8 C06         12.5000   -18.4280    20.5940 c          1 HKU       0.637500
      9 O07         11.9120   -17.8250    21.4910 o          1 HKU      -0.702500
     10 O08         13.2160   -19.3890    20.8570 o          1 HKU      -0.702500
     11 C09         13.8350   -19.6660    17.8800 c3         1 HKU       0.074300
     12 H1          15.4300   -18.5490    16.8790 hc         1 HKU       0.031200
     13 H2          15.6320   -20.3100    16.8140 hc         1 HKU       0.031200
     14 H3          14.4350   -19.5230    15.7700 hc         1 HKU       0.031200
     15 H4          12.3600   -21.1300    18.5590 hc         1 HKU       0.031200
     16 H5          12.4880   -21.0030    16.7910 hc         1 HKU       0.031200
     17 H6          13.7500   -21.8450    17.7190 hc         1 HKU       0.031200
     18 H10         14.4030   -19.7180    18.8160 h1         1 HKU       0.129700
     19 H7          11.0470   -16.0650    16.8990 h4         1 HKU       0.003100
     20 H8          12.6840   -17.9880    15.8590 h4         1 HKU       0.123000
@<TRIPOS>BOND
     1     1    11 1   
     2     1    12 1   
     3     1    13 1   
     4     1    14 1   
     5     2    11 1   
     6     2    15 1   
     7     2    16 1   
     8     2    17 1   
     9     3     4 2   
    10     3     7 1   
    11     3    19 1   
    12     4     5 1   
    13     4    20 1   
    14     5     6 1   
    15     5    11 1   
    16     6     7 2   
    17     6     8 1   
    18     8     9 1   
    19     8    10 1   
    20    11    18 1   
@<TRIPOS>SUBSTRUCTURE
     1 HKU         1 TEMP              0 ****  ****    0 ROOT
