@<TRIPOS>MOLECULE
HKV
   14    13     1     0     0
SMALL
abcg2


@<TRIPOS>ATOM
      1 O4          -2.8540    -0.5670     2.6420 o          1 HKV      -0.738000
      2 C5          -1.9070    -0.8020     1.8640 c          1 HKV       0.719000
      3 O3          -1.8770    -1.6700     0.9710 o          1 HKV      -0.738000
      4 C4          -0.6560     0.0790     2.0530 c3         1 HKV      -0.205400
      5 C3           0.4350    -0.1520     1.0290 c3         1 HKV      -0.145400
      6 C2           1.6600     0.6770     1.2070 c          1 HKV       0.453100
      7 O5           1.8530     1.4880     2.0780 o          1 HKV      -0.492100
      8 C1           2.7600     0.4420     0.1610 c          1 HKV       0.455900
      9 O2           3.8080     1.0220     0.2180 o          1 HKV      -0.499100
     10 HA          -0.2660    -0.0930     3.0610 hc         1 HKV       0.032700
     11 H3C1         0.0720     0.0230     0.0090 hc         1 HKV       0.066700
     12 H3C2         0.7570    -1.2000     1.0150 hc         1 HKV       0.066700
     13 H1           2.5320    -0.2860    -0.6350 h4         1 HKV      -0.007800
     14 H41         -0.9670     1.1280     2.0400 hc         1 HKV       0.032700
@<TRIPOS>BOND
     1     1     2 1   
     2     2     3 1   
     3     2     4 1   
     4     4     5 1   
     5     4    10 1   
     6     4    14 1   
     7     5     6 1   
     8     5    11 1   
     9     5    12 1   
    10     6     7 2   
    11     6     8 1   
    12     8     9 2   
    13     8    13 1   
@<TRIPOS>SUBSTRUCTURE
     1 HKV         1 TEMP              0 ****  ****    0 ROOT
