@<TRIPOS>MOLECULE
HKV
   14    13     1     0     0
SMALL
No Charge or Current Charge


@<TRIPOS>ATOM
      1 O4          -2.7210    -0.3430     2.1270 o          1 HKV      -0.738000
      2 C5          -1.7080    -0.9980     1.9370 c          1 HKV       0.719000
      3 O3          -1.7130    -2.1570     1.5510 o          1 HKV      -0.738000
      4 C4          -0.3480    -0.3010     2.1150 c3         1 HKV      -0.205400
      5 C3           0.1040     0.3710     0.7860 c3         1 HKV      -0.145400
      6 C2           1.4720     1.0650     0.9280 c          1 HKV       0.453100
      7 O5           1.5640     2.2130     1.3620 o          1 HKV      -0.492100
      8 C1           2.7400     0.2250     0.4970 c          1 HKV       0.455900
      9 O2           3.8890     0.6710     0.5150 o          1 HKV      -0.499100
     10 HA           0.4260    -1.0390     2.3600 hc         1 HKV       0.032700
     11 H3C1        -0.6480     1.1120     0.4890 hc         1 HKV       0.066700
     12 H3C2         0.1790    -0.4200     0.0290 hc         1 HKV       0.066700
     13 H1           2.5460    -0.8200     0.1670 h4         1 HKV      -0.007800
     14 H41         -0.4320     0.5100     2.8500 hc         1 HKV       0.032700
@<TRIPOS>BOND
     1     1     2 1   
     2     2     3 1   
     3     2     4 1   
     4     4     5 1   
     5     4    10 1   
     6     4    14 1   
     7     5     6 1   
     8     5    11 1   
     9     5    12 1   
    10     6     7 2   
    11     6     8 1   
    12     8     9 2   
    13     8    13 1   
@<TRIPOS>SUBSTRUCTURE
     1 HKV         1 TEMP              0 ****  ****    0 ROOT
