@<TRIPOS>MOLECULE
HKW
  108   113     1     0     0
SMALL
bcc


@<TRIPOS>ATOM
      1 C1          -4.1490     6.0320     0.4400 ca         1 HKW      -0.034200
      2 C2          -5.3840     6.0030    -0.1870 ca         1 HKW      -0.127300
      3 C3          -5.8600     4.5770    -0.2760 c5         1 HKW      -0.073000
      4 C4          -4.6970     3.8340     0.3710 ce         1 HKW       0.408600
      5 C5          -6.0490     4.1750    -1.7440 c3         1 HKW      -0.074100
      6 C7          -7.1560     4.4040     0.5290 c3         1 HKW      -0.074100
      7 C9          -3.4550     7.2090     0.6600 ca         1 HKW      -0.119000
      8 C10         -4.0560     8.3870     0.2280 ca         1 HKW      -0.093000
      9 C11         -5.2970     8.3760    -0.3990 ca         1 HKW      -0.120000
     10 C12         -5.9730     7.1750    -0.6120 ca         1 HKW      -0.076000
     11 C13         -4.5340     2.4660     0.5390 ce         1 HKW      -0.420600
     12 C14         -5.4710     1.4920     0.2140 cf         1 HKW       0.103000
     13 C15         -5.2640     0.1340     0.4120 cf         1 HKW      -0.306000
     14 C16         -6.2420    -0.8040     0.1150 ce         1 HKW       0.103000
     15 C17         -6.0770    -2.1710     0.3110 ce         1 HKW      -0.335000
     16 C18         -7.0280    -3.1480     0.0580 c2         1 HKW       0.262800
     17 C19         -8.4430    -2.9900    -0.4800 c5         1 HKW       0.009500
     18 C20         -8.9030    -4.4240    -0.5170 ca         1 HKW      -0.127300
     19 N1          -3.7810     4.7260     0.7760 nh         1 HKW      -0.125200
     20 C21         -7.8860    -5.2430    -0.0480 ca         1 HKW       0.097600
     21 N22         -6.7880    -4.4460     0.2900 nh         1 HKW      -0.463800
     22 C23        -10.1020    -4.9730    -0.9220 ca         1 HKW      -0.075000
     23 C24        -10.2650    -6.3550    -0.8460 ca         1 HKW      -0.121000
     24 C25         -9.2380    -7.1610    -0.3720 ca         1 HKW      -0.093000
     25 C26         -8.0230    -6.6170     0.0360 ca         1 HKW      -0.123000
     26 C27         -5.5420    -4.9620     0.8130 c3         1 HKW       0.193100
     27 C28         -9.3200    -2.1800     0.4850 c3         1 HKW      -0.074100
     28 C29         -8.4560    -2.3890    -1.8910 c3         1 HKW      -0.074100
     29 C31         10.1510    -1.4440     0.0730 c6         1 HKW       0.154100
     30 C32         11.3150    -1.6780    -0.8860 c6         1 HKW      -0.146400
     31 C33         12.0580    -2.9680    -0.5700 c6         1 HKW       0.117100
     32 C34         11.0940    -4.1450    -0.6120 c6         1 HKW       0.119100
     33 C35          9.9350    -3.9420     0.3600 c6         1 HKW       0.162100
     34 C36          9.1970    -2.6380     0.0580 c6         1 HKW      -0.069700
     35 O39         13.0820    -3.2370    -1.5080 oh         1 HKW      -0.604800
     36 O50         11.7210    -5.3560    -0.2560 oh         1 HKW      -0.606800
     37 O51          9.0080    -5.0000     0.2600 oh         1 HKW      -0.612800
     38 N53          7.2450    -1.2740     0.7190 na         1 HKW       0.107400
     39 N54          7.3660    -0.1690     1.4330 nc         1 HKW      -0.191800
     40 N55          6.5940     0.7250     0.9200 nd         1 HKW      -0.347000
     41 C56          5.9570     0.2010    -0.1510 cd         1 HKW       0.224600
     42 C57          6.3740    -1.0970    -0.2890 cc         1 HKW      -0.242600
     43 C63          4.9630     0.9640    -0.9600 c3         1 HKW       0.087700
     44 N24          3.7870     1.2970    -0.1900 ns         1 HKW      -0.566900
     45 C65          3.3900     2.5510     0.0880 c          1 HKW       0.675100
     46 C66          2.1570     2.6560     0.9570 c3         1 HKW      -0.160400
     47 O67          3.9640     3.5470    -0.3320 o          1 HKW      -0.594100
     48 H2          -6.8080     4.8120    -2.1980 hc         1 HKW       0.052533
     49 H3          -5.1260     4.2930    -2.3100 hc         1 HKW       0.052533
     50 H4          -6.3800     3.1430    -1.8470 hc         1 HKW       0.052533
     51 H5          -7.9300     5.0510     0.1160 hc         1 HKW       0.052533
     52 H6          -7.5290     3.3820     0.4880 hc         1 HKW       0.052533
     53 H7          -7.0120     4.6730     1.5750 hc         1 HKW       0.052533
     54 H8          -2.4870     7.2290     1.1430 ha         1 HKW       0.153000
     55 H9          -3.5440     9.3270     0.3840 ha         1 HKW       0.152000
     56 H10         -5.7410     9.3070    -0.7240 ha         1 HKW       0.152000
     57 H11         -6.9370     7.1690    -1.1050 ha         1 HKW       0.148000
     58 H12         -3.6060     2.1130     0.9710 ha         1 HKW       0.151000
     59 H13         -6.4270     1.7810    -0.2060 ha         1 HKW       0.120000
     60 H14         -4.3180    -0.2020     0.8240 ha         1 HKW       0.146000
     61 H15         -7.1750    -0.4230    -0.2840 ha         1 HKW       0.120000
     62 H16         -5.1190    -2.4920     0.7030 ha         1 HKW       0.149000
     63 H17        -10.9070    -4.3510    -1.2950 ha         1 HKW       0.148000
     64 H18        -11.1980    -6.8030    -1.1610 ha         1 HKW       0.152000
     65 H19         -9.3780    -8.2330    -0.3190 ha         1 HKW       0.151000
     66 H20         -7.2310    -7.2590     0.3990 ha         1 HKW       0.150000
     67 H21         -5.6370    -6.0250     1.0010 h1         1 HKW       0.067700
     68 H22         -4.7330    -4.8040     0.1020 h1         1 HKW       0.067700
     69 H23         -5.2940    -4.4720     1.7530 h1         1 HKW       0.067700
     70 H24         -9.0010    -1.1400     0.5480 hc         1 HKW       0.052533
     71 H25        -10.3520    -2.1900     0.1360 hc         1 HKW       0.052533
     72 H26         -9.2990    -2.6030     1.4890 hc         1 HKW       0.052533
     73 H27         -7.8240    -2.9590    -2.5720 hc         1 HKW       0.052533
     74 H28         -9.4740    -2.4030    -2.2810 hc         1 HKW       0.052533
     75 H29         -8.1170    -1.3550    -1.8970 hc         1 HKW       0.052533
     76 H33          9.6040    -0.5580    -0.2750 h1         1 HKW       0.048700
     77 H34         10.9290    -1.7190    -1.9090 hc         1 HKW       0.057700
     78 H35         12.0010    -0.8260    -0.8440 hc         1 HKW       0.057700
     79 H36         12.4790    -2.9050     0.4430 h1         1 HKW       0.056700
     80 H37         10.6740    -4.2080    -1.6300 h1         1 HKW       0.049700
     81 H38         10.3470    -3.8930     1.3800 h1         1 HKW       0.063700
     82 H39          8.7950    -2.7110    -0.9600 hc         1 HKW       0.065700
     83 H41         13.8170    -2.6430    -1.3330 ho         1 HKW       0.414000
     84 H42         12.4230    -5.5300    -0.8910 ho         1 HKW       0.431000
     85 H43          9.4760    -5.8230     0.4340 ho         1 HKW       0.432000
     86 H46          6.1210    -1.8720    -0.9920 h4         1 HKW       0.186000
     87 H47          5.4010     1.8920    -1.3240 h1         1 HKW       0.069200
     88 H48          4.6810     0.3760    -1.8350 h1         1 HKW       0.069200
     89 H49          3.2550     0.5300     0.1890 hn         1 HKW       0.307500
     90 H50          1.8050     1.6710     1.2700 hc         1 HKW       0.059200
     91 H51          2.4430     3.1910     1.8680 hc         1 HKW       0.059200
     92 C6           1.0240     3.4070     0.2620 c3         1 HKW      -0.067400
     93 C8          -0.1790     3.5780     1.1800 c3         1 HKW      -0.076400
     94 C22         -1.3790     4.1940     0.4740 c3         1 HKW      -0.097400
     95 C37         -2.5330     4.4120     1.4460 c3         1 HKW       0.025300
     96 H1           1.3770     4.3860    -0.0700 hc         1 HKW       0.055700
     97 H52          0.7240     2.8590    -0.6370 hc         1 HKW       0.055700
     98 H53         -0.4700     2.6030     1.5850 hc         1 HKW       0.042700
     99 H54          0.1080     4.1920     2.0400 hc         1 HKW       0.042700
    100 H55         -1.1010     5.1460     0.0140 hc         1 HKW       0.058200
    101 H56         -1.7020     3.5360    -0.3380 hc         1 HKW       0.058200
    102 C52          8.0230    -2.4590     1.0220 c3         1 HKW       0.055300
    103 O37         10.5940    -1.2600     1.4020 oh         1 HKW      -0.595800
    104 H30         -2.3120     5.2300     2.1320 h1         1 HKW       0.073700
    105 H31         -2.6870     3.5330     2.0710 h1         1 HKW       0.073700
    106 H40         11.1030    -0.4450     1.4420 ho         1 HKW       0.414000
    107 H44          7.3530    -3.3150     0.9690 h1         1 HKW       0.090700
    108 H45          8.3660    -2.3640     2.0510 h1         1 HKW       0.090700
@<TRIPOS>BOND
     1     1     2 ar  
     2     1     7 ar  
     3     1    19 1   
     4     2     3 1   
     5     2    10 ar  
     6     3     4 1   
     7     3     5 1   
     8     3     6 1   
     9     4    11 1   
    10     4    19 2   
    11     5    48 1   
    12     5    49 1   
    13     5    50 1   
    14     6    51 1   
    15     6    52 1   
    16     6    53 1   
    17     7     8 ar  
    18     7    54 1   
    19     8     9 ar  
    20     8    55 1   
    21     9    10 ar  
    22     9    56 1   
    23    10    57 1   
    24    11    12 2   
    25    11    58 1   
    26    12    13 1   
    27    12    59 1   
    28    13    14 2   
    29    13    60 1   
    30    14    15 1   
    31    14    61 1   
    32    15    16 2   
    33    15    62 1   
    34    16    17 1   
    35    16    21 1   
    36    17    18 1   
    37    17    27 1   
    38    17    28 1   
    39    18    20 ar  
    40    18    22 ar  
    41    19    95 1   
    42    20    21 1   
    43    20    25 ar  
    44    21    26 1   
    45    22    23 ar  
    46    22    63 1   
    47    23    24 ar  
    48    23    64 1   
    49    24    25 ar  
    50    24    65 1   
    51    25    66 1   
    52    26    67 1   
    53    26    68 1   
    54    26    69 1   
    55    27    70 1   
    56    27    71 1   
    57    27    72 1   
    58    28    73 1   
    59    28    74 1   
    60    28    75 1   
    61    29    30 1   
    62    29    34 1   
    63    29    76 1   
    64    29   103 1   
    65    30    31 1   
    66    30    77 1   
    67    30    78 1   
    68    31    32 1   
    69    31    35 1   
    70    31    79 1   
    71    32    33 1   
    72    32    36 1   
    73    32    80 1   
    74    33    34 1   
    75    33    37 1   
    76    33    81 1   
    77    34    82 1   
    78    34   102 1   
    79    35    83 1   
    80    36    84 1   
    81    37    85 1   
    82    38    39 1   
    83    38    42 1   
    84    38   102 1   
    85    39    40 2   
    86    40    41 1   
    87    41    42 2   
    88    41    43 1   
    89    42    86 1   
    90    43    44 1   
    91    43    87 1   
    92    43    88 1   
    93    44    45 1   
    94    44    89 1   
    95    45    46 1   
    96    45    47 2   
    97    46    90 1   
    98    46    91 1   
    99    46    92 1   
   100    92    93 1   
   101    92    96 1   
   102    92    97 1   
   103    93    94 1   
   104    93    98 1   
   105    93    99 1   
   106    94    95 1   
   107    94   100 1   
   108    94   101 1   
   109    95   104 1   
   110    95   105 1   
   111   102   107 1   
   112   102   108 1   
   113   103   106 1   
@<TRIPOS>SUBSTRUCTURE
     1 HKW         1 TEMP              0 ****  ****    0 ROOT
