@<TRIPOS>MOLECULE
HKW
  108   113     1     0     0
SMALL
No Charge or Current Charge


@<TRIPOS>ATOM
      1 C1          -4.1370     6.2920     0.1540 ca         1 HKW      -0.034200
      2 C2          -5.2070     5.9660    -0.6730 ca         1 HKW      -0.127300
      3 C3          -5.4420     4.4560    -0.7020 c5         1 HKW      -0.073000
      4 C4          -4.3020     4.0030     0.2430 ce         1 HKW       0.408600
      5 C5          -5.2900     3.9200    -2.1500 c3         1 HKW      -0.074100
      6 C7          -6.8580     4.1230    -0.1620 c3         1 HKW      -0.074100
      7 C9          -3.7230     7.6230     0.3280 ca         1 HKW      -0.101000
      8 C10         -4.4260     8.6370    -0.3530 ca         1 HKW      -0.075000
      9 C11         -5.5170     8.3120    -1.1890 ca         1 HKW      -0.102000
     10 C12         -5.9140     6.9700    -1.3560 ca         1 HKW      -0.058000
     11 C13         -3.9120     2.6090     0.5500 ce         1 HKW      -0.470600
     12 C14         -4.5520     1.4650     0.1890 cf         1 HKW       0.053000
     13 C15         -4.0670     0.1400     0.5410 cf         1 HKW      -0.356000
     14 C16         -4.6860    -1.0260     0.2180 ce         1 HKW       0.053000
     15 C17         -4.1550    -2.3450     0.5910 ce         1 HKW      -0.385000
     16 C18         -4.6790    -3.5730     0.3530 c2         1 HKW       0.262800
     17 C19         -6.0270    -3.8400    -0.4020 c5         1 HKW       0.009500
     18 C20         -6.0620    -5.3630    -0.3330 ca         1 HKW      -0.127300
     19 N1          -3.6120     5.1220     0.7100 nh         1 HKW      -0.154500
     20 C21         -4.9560    -5.8660     0.3230 ca         1 HKW       0.236000
     21 N22         -4.1460    -4.8050     0.7230 nh         1 HKW      -0.602200
     22 C23         -7.0480    -6.2270    -0.8430 ca         1 HKW      -0.057000
     23 C24         -6.8890    -7.6160    -0.6720 ca         1 HKW      -0.103000
     24 C25         -5.7570    -8.1270    -0.0010 ca         1 HKW      -0.075000
     25 C26         -4.7770    -7.2480     0.5040 ca         1 HKW      -0.105000
     26 C27         -2.8690    -4.9710     1.4560 c3         1 HKW       0.193100
     27 C28         -7.2710    -3.2620     0.3260 c3         1 HKW      -0.074100
     28 C29         -6.0050    -3.3940    -1.8900 c3         1 HKW      -0.074100
     29 C31          7.5850    -2.4180    -0.8030 c6         1 HKW       0.177300
     30 C32          7.7040    -2.9690    -2.2490 c6         1 HKW      -0.146400
     31 C33          7.3440    -4.4750    -2.3230 c6         1 HKW       0.140300
     32 C34          5.9130    -4.7110    -1.7580 c6         1 HKW       0.142300
     33 C35          5.8130    -4.2020    -0.2880 c6         1 HKW       0.185300
     34 C36          6.1660    -2.6860    -0.2070 c6         1 HKW      -0.069700
     35 O39          7.4170    -4.9320    -3.6840 oh         1 HKW      -0.727000
     36 O50          5.5710    -6.1060    -1.8400 oh         1 HKW      -0.669000
     37 O51          4.4850    -4.4500     0.2010 oh         1 HKW      -0.735000
     38 N53          6.2610    -0.6840     1.3860 na         1 HKW       0.128800
     39 N54          7.2960    -0.2080     2.1350 nc         1 HKW      -0.191800
     40 N55          7.2420     1.0950     2.0610 nd         1 HKW      -0.347000
     41 C56          6.1760     1.4600     1.2660 cd         1 HKW       0.159300
     42 C57          5.5340     0.3370     0.8270 cc         1 HKW      -0.210000
     43 C63          5.8300     2.9010     0.9770 c3         1 HKW       0.087700
     44 N24          4.5530     3.3030     1.5810 ns         1 HKW      -0.499900
     45 C65          3.9770     4.5420     1.4240 c          1 HKW       0.608100
     46 C66          2.6470     4.7390     2.1580 c3         1 HKW      -0.160400
     47 O67          4.5070     5.4270     0.7690 o          1 HKW      -0.594100
     48 H2          -6.0310     4.3700    -2.8210 hc         1 HKW       0.052533
     49 H3          -4.2970     4.1570    -2.5520 hc         1 HKW       0.052533
     50 H4          -5.4170     2.8340    -2.2090 hc         1 HKW       0.052533
     51 H5          -7.6340     4.5630    -0.7990 hc         1 HKW       0.052533
     52 H6          -7.0470     3.0460    -0.1160 hc         1 HKW       0.052533
     53 H7          -6.9950     4.5250     0.8490 hc         1 HKW       0.052533
     54 H8          -2.8810     7.8760     0.9680 ha         1 HKW       0.135000
     55 H9          -4.1260     9.6770    -0.2340 ha         1 HKW       0.134000
     56 H10         -6.0530     9.1020    -1.7110 ha         1 HKW       0.134000
     57 H11         -6.7520     6.7190    -2.0030 ha         1 HKW       0.130000
     58 H12         -2.9980     2.4930     1.1290 ha         1 HKW       0.201000
     59 H13         -5.4750     1.5100    -0.3910 ha         1 HKW       0.170000
     60 H14         -3.1360     0.0920     1.1070 ha         1 HKW       0.196000
     61 H15         -5.6150    -0.9670    -0.3450 ha         1 HKW       0.170000
     62 H16         -3.2130    -2.2980     1.1320 ha         1 HKW       0.199000
     63 H17         -7.9200    -5.8340    -1.3600 ha         1 HKW       0.130000
     64 H18         -7.6420    -8.2990    -1.0600 ha         1 HKW       0.134000
     65 H19         -5.6400    -9.2010     0.1270 ha         1 HKW       0.133000
     66 H20         -3.9090    -7.6450     1.0200 ha         1 HKW       0.132000
     67 H21         -2.6350    -6.0250     1.6440 h1         1 HKW       0.067700
     68 H22         -2.0390    -4.5440     0.8780 h1         1 HKW       0.067700
     69 H23         -2.9180    -4.4620     2.4270 h1         1 HKW       0.067700
     70 H24         -7.2940    -2.1690     0.3290 hc         1 HKW       0.052533
     71 H25         -8.2010    -3.6010    -0.1470 hc         1 HKW       0.052533
     72 H26         -7.2970    -3.5930     1.3710 hc         1 HKW       0.052533
     73 H27         -5.1360    -3.8170    -2.4080 hc         1 HKW       0.052533
     74 H28         -6.9010    -3.7360    -2.4200 hc         1 HKW       0.052533
     75 H29         -5.9580    -2.3080    -2.0100 hc         1 HKW       0.052533
     76 H33          7.7430    -1.3290    -0.8430 h1         1 HKW       0.048700
     77 H34          7.0360    -2.3960    -2.9080 hc         1 HKW       0.057700
     78 H35          8.7220    -2.8030    -2.6260 hc         1 HKW       0.057700
     79 H36          8.0590    -5.0370    -1.7020 h1         1 HKW       0.056700
     80 H37          5.2100    -4.1260    -2.3710 h1         1 HKW       0.049700
     81 H38          6.5420    -4.7630     0.3190 h1         1 HKW       0.063700
     82 H39          5.4340    -2.1350    -0.8140 hc         1 HKW       0.065700
     83 H41          8.3370    -4.7580    -3.9970 ho         1 HKW       0.513000
     84 H42          5.9600    -6.4020    -2.6970 ho         1 HKW       0.470000
     85 H43          4.2410    -5.3200    -0.1990 ho         1 HKW       0.531000
     86 H46          4.6660     0.1940     0.1980 h4         1 HKW       0.168000
     87 H47          6.6260     3.5520     1.3610 h1         1 HKW       0.069200
     88 H48          5.7710     3.0410    -0.1100 h1         1 HKW       0.069200
     89 H49          4.0540     2.6320     2.1530 hn         1 HKW       0.307500
     90 H50          2.4910     3.9240     2.8750 hc         1 HKW       0.059200
     91 H51          2.6800     5.6980     2.6900 hc         1 HKW       0.059200
     92 C6           1.4520     4.7640     1.1750 c3         1 HKW      -0.067400
     93 C8           0.0920     4.9330     1.8870 c3         1 HKW      -0.076400
     94 C22         -1.1030     4.9590     0.9100 c3         1 HKW      -0.097400
     95 C37         -2.4600     5.1050     1.6290 c3         1 HKW       0.054600
     96 H1           1.5890     5.5850     0.4590 hc         1 HKW       0.055700
     97 H52          1.4430     3.8320     0.5950 hc         1 HKW       0.055700
     98 H53         -0.0450     4.1100     2.6010 hc         1 HKW       0.042700
     99 H54          0.1020     5.8630     2.4690 hc         1 HKW       0.042700
    100 H55         -0.9790     5.7920     0.2050 hc         1 HKW       0.058200
    101 H56         -1.1070     4.0370     0.3160 hc         1 HKW       0.058200
    102 C52          6.0240    -2.1310     1.2460 c3         1 HKW       0.084600
    103 O37          8.5940    -3.0140     0.0180 oh         1 HKW      -0.658000
    104 H30         -2.4550     6.0290     2.2210 h1         1 HKW       0.073700
    105 H31         -2.5800     4.2900     2.3530 h1         1 HKW       0.073700
    106 H40          9.4560    -2.6400    -0.2720 ho         1 HKW       0.453000
    107 H44          5.0090    -2.3320     1.6090 h1         1 HKW       0.090700
    108 H45          6.7170    -2.6680     1.9050 h1         1 HKW       0.090700
@<TRIPOS>BOND
     1     1     2 ar  
     2     1     7 ar  
     3     1    19 1   
     4     2     3 1   
     5     2    10 ar  
     6     3     4 1   
     7     3     5 1   
     8     3     6 1   
     9     4    11 1   
    10     4    19 2   
    11     5    48 1   
    12     5    49 1   
    13     5    50 1   
    14     6    51 1   
    15     6    52 1   
    16     6    53 1   
    17     7     8 ar  
    18     7    54 1   
    19     8     9 ar  
    20     8    55 1   
    21     9    10 ar  
    22     9    56 1   
    23    10    57 1   
    24    11    12 2   
    25    11    58 1   
    26    12    13 1   
    27    12    59 1   
    28    13    14 2   
    29    13    60 1   
    30    14    15 1   
    31    14    61 1   
    32    15    16 2   
    33    15    62 1   
    34    16    17 1   
    35    16    21 1   
    36    17    18 1   
    37    17    27 1   
    38    17    28 1   
    39    18    20 ar  
    40    18    22 ar  
    41    19    95 1   
    42    20    21 1   
    43    20    25 ar  
    44    21    26 1   
    45    22    23 ar  
    46    22    63 1   
    47    23    24 ar  
    48    23    64 1   
    49    24    25 ar  
    50    24    65 1   
    51    25    66 1   
    52    26    67 1   
    53    26    68 1   
    54    26    69 1   
    55    27    70 1   
    56    27    71 1   
    57    27    72 1   
    58    28    73 1   
    59    28    74 1   
    60    28    75 1   
    61    29    30 1   
    62    29    34 1   
    63    29    76 1   
    64    29   103 1   
    65    30    31 1   
    66    30    77 1   
    67    30    78 1   
    68    31    32 1   
    69    31    35 1   
    70    31    79 1   
    71    32    33 1   
    72    32    36 1   
    73    32    80 1   
    74    33    34 1   
    75    33    37 1   
    76    33    81 1   
    77    34    82 1   
    78    34   102 1   
    79    35    83 1   
    80    36    84 1   
    81    37    85 1   
    82    38    39 1   
    83    38    42 1   
    84    38   102 1   
    85    39    40 2   
    86    40    41 1   
    87    41    42 2   
    88    41    43 1   
    89    42    86 1   
    90    43    44 1   
    91    43    87 1   
    92    43    88 1   
    93    44    45 1   
    94    44    89 1   
    95    45    46 1   
    96    45    47 2   
    97    46    90 1   
    98    46    91 1   
    99    46    92 1   
   100    92    93 1   
   101    92    96 1   
   102    92    97 1   
   103    93    94 1   
   104    93    98 1   
   105    93    99 1   
   106    94    95 1   
   107    94   100 1   
   108    94   101 1   
   109    95   104 1   
   110    95   105 1   
   111   102   107 1   
   112   102   108 1   
   113   103   106 1   
@<TRIPOS>SUBSTRUCTURE
     1 HKW         1 TEMP              0 ****  ****    0 ROOT
