@<TRIPOS>MOLECULE
HKX
   45    47     1     0     0
SMALL
No Charge or Current Charge


@<TRIPOS>ATOM
      1 OAA         -3.5520     3.2060    -1.1400 o          1 HKX      -0.516000
      2 CAB         -3.5190     0.3810    -2.7510 c3         1 HKX       0.203100
      3 OAC         -3.8620     0.7330     0.8890 o          1 HKX      -0.530000
      4 NAD         -1.4290     3.7550    -0.6970 ns         1 HKX      -0.463500
      5 CAE         -2.3890     2.8550    -1.0120 c          1 HKX       0.607200
      6 CAF         -1.8890     1.4640    -1.1810 cc         1 HKX      -0.249200
      7 NAG         -2.8100     0.4270    -1.4590 nh         1 HKX      -0.598300
      8 SAH         -3.6060    -0.3080    -0.1140 sy         1 HKX       1.155600
      9 CAI         -2.2770    -1.3800     0.4680 ca         1 HKX      -0.276500
     10 CAJ         -1.4620    -0.9800     1.5490 ca         1 HKX      -0.022500
     11 CAK         -0.4090    -1.8060     1.9770 ca         1 HKX      -0.136000
     12 CAM         -0.1020     3.5500    -0.5320 c          1 HKX       0.627000
     13 NAN          0.3600     2.2380    -0.7290 n          1 HKX      -0.332000
     14 CAO         -0.5350     1.2290    -1.0540 cd         1 HKX       0.382600
     15 OAP         -4.6890    -1.1460    -0.6470 o          1 HKX      -0.530000
     16 CAQ         -2.0310    -2.6110    -0.1770 ca         1 HKX      -0.022500
     17 CAR         -0.9710    -3.4290     0.2550 ca         1 HKX      -0.136000
     18 CAS         -0.1600    -3.0270     1.3300 ca         1 HKX      -0.063000
     19 CAT          1.8200     1.9700    -0.5850 c3         1 HKX       0.136300
     20 NAU         -0.0490    -0.0210    -1.2450 nv         1 HKX      -0.946000
     21 CAV          2.8200    -0.0860     0.5460 ca         1 HKX      -0.090000
     22 CAW          2.1660     1.1580     0.6610 ca         1 HKX      -0.122300
     23 CAX          1.8290     1.6460     1.9390 ca         1 HKX      -0.070000
     24 CAY          3.1220    -0.8330     1.6970 ca         1 HKX      -0.022900
     25 CAZ          2.7880    -0.3410     2.9690 ca         1 HKX      -0.075000
     26 CBA          2.1400     0.9000     3.0890 ca         1 HKX      -0.109000
     27 Br1          3.9860    -2.5300     1.5290 br         1 HKX      -0.088100
     28 HAB         -3.6290    -0.6550    -3.0940 h1         1 HKX       0.053700
     29 HABA        -4.5160     0.8320    -2.6620 h1         1 HKX       0.053700
     30 HABB        -2.9580     0.9350    -3.5140 h1         1 HKX       0.053700
     31 HNAD        -1.7440     4.7020    -0.5660 hn         1 HKX       0.350500
     32 HAJ         -1.6330    -0.0290     2.0520 ha         1 HKX       0.139500
     33 HAK          0.2150    -1.4970     2.8110 ha         1 HKX       0.120500
     34 HAQ         -2.6500    -2.9310    -1.0130 ha         1 HKX       0.139500
     35 HAR         -0.7800    -4.3750    -0.2450 ha         1 HKX       0.120500
     36 HAS          0.6590    -3.6620     1.6620 ha         1 HKX       0.121000
     37 HAT          2.1680     1.4410    -1.4830 h1         1 HKX       0.085200
     38 HATA         2.3890     2.9080    -0.5570 h1         1 HKX       0.085200
     39 HNAU        -0.7780    -0.7230    -1.3140 hn         1 HKX       0.499500
     40 HNAA         0.7400    -0.2970    -0.6750 hn         1 HKX       0.499500
     41 HAV          3.0960    -0.4760    -0.4320 ha         1 HKX       0.125000
     42 HAX          1.3270     2.6060     2.0430 ha         1 HKX       0.138000
     43 HAZ          3.0250    -0.9210     3.8580 ha         1 HKX       0.135000
     44 HBA          1.8780     1.2830     4.0730 ha         1 HKX       0.127000
     45 OAL          0.6230     4.4830    -0.2290 o          1 HKX      -0.558000
@<TRIPOS>BOND
     1     1     5 2   
     2     2     7 1   
     3     2    28 1   
     4     2    29 1   
     5     2    30 1   
     6     3     8 2   
     7     4     5 1   
     8     4    12 1   
     9     4    31 1   
    10     5     6 1   
    11     6     7 1   
    12     6    14 2   
    13     7     8 1   
    14     8     9 1   
    15     8    15 2   
    16     9    10 ar  
    17     9    16 ar  
    18    10    11 ar  
    19    10    32 1   
    20    11    18 ar  
    21    11    33 1   
    22    12    13 1   
    23    12    45 2   
    24    13    14 1   
    25    13    19 1   
    26    14    20 1   
    27    16    17 ar  
    28    16    34 1   
    29    17    18 ar  
    30    17    35 1   
    31    18    36 1   
    32    19    22 1   
    33    19    37 1   
    34    19    38 1   
    35    20    39 1   
    36    20    40 1   
    37    21    22 ar  
    38    21    24 ar  
    39    21    41 1   
    40    22    23 ar  
    41    23    26 ar  
    42    23    42 1   
    43    24    25 ar  
    44    24    27 1   
    45    25    26 ar  
    46    25    43 1   
    47    26    44 1   
@<TRIPOS>SUBSTRUCTURE
     1 HKX         1 TEMP              0 ****  ****    0 ROOT
