@<TRIPOS>MOLECULE
HKX
   45    47     1     0     0
SMALL
bcc


@<TRIPOS>ATOM
      1 OAA         -3.5980     3.0660    -0.9760 o          1 HKX      -0.591500
      2 CAB         -3.4590     0.4680    -2.8500 c3         1 HKX       0.203100
      3 OAC         -4.1420     0.5510     0.6630 o          1 HKX      -0.600800
      4 NAD         -1.4700     3.6090    -0.4430 ns         1 HKX      -0.597500
      5 CAE         -2.4400     2.7050    -0.8650 c          1 HKX       0.749700
      6 CAF         -1.9320     1.3990    -1.1350 cc         1 HKX      -0.249200
      7 NAG         -2.7970     0.3640    -1.5470 nh         1 HKX      -0.598300
      8 SAH         -3.6160    -0.3990    -0.3040 sy         1 HKX       1.297200
      9 CAI         -2.3010    -1.2870     0.4800 ca         1 HKX      -0.276500
     10 CAJ         -1.6600    -0.7320     1.5790 ca         1 HKX      -0.040500
     11 CAK         -0.5810    -1.4050     2.1350 ca         1 HKX      -0.154000
     12 CAM         -0.1380     3.3840    -0.2900 c          1 HKX       0.836500
     13 NAN          0.3010     2.1160    -0.6500 n          1 HKX      -0.399000
     14 CAO         -0.5730     1.1470    -1.0790 cd         1 HKX       0.382600
     15 OAP         -4.5320    -1.3400    -0.9310 o          1 HKX      -0.600800
     16 CAQ         -1.9000    -2.5040    -0.0580 ca         1 HKX      -0.040500
     17 CAR         -0.8230    -3.1660     0.5100 ca         1 HKX      -0.154000
     18 CAS         -0.1600    -2.6130     1.5990 ca         1 HKX      -0.081000
     19 CAT          1.7380     1.8500    -0.5880 c3         1 HKX       0.136300
     20 NAU         -0.0630    -0.0220    -1.4860 nv         1 HKX      -0.835600
     21 CAV          2.7890    -0.1770     0.4490 ca         1 HKX      -0.108000
     22 CAW          2.1340     1.0360     0.6200 ca         1 HKX      -0.122300
     23 CAX          1.8700     1.4950     1.9090 ca         1 HKX      -0.088000
     24 CAY          3.1590    -0.9230     1.5600 ca         1 HKX      -0.022900
     25 CAZ          2.9000    -0.4760     2.8440 ca         1 HKX      -0.093000
     26 CBA          2.2560     0.7440     3.0060 ca         1 HKX      -0.127000
     27 BR1          4.0220    -2.5820     1.3090 br         1 HKX      -0.088100
     28 HAB         -3.7520    -0.5150    -3.2090 h1         1 HKX       0.053700
     29 HABA        -4.3270     1.1260    -2.8380 h1         1 HKX       0.053700
     30 HABB        -2.7250     0.8720    -3.5430 h1         1 HKX       0.053700
     31 HNAD        -1.7860     4.5410    -0.2060 hn         1 HKX       0.350500
     32 HAJ         -1.9830     0.2110     1.9960 ha         1 HKX       0.157500
     33 HAK         -0.0690    -0.9800     2.9860 ha         1 HKX       0.138500
     34 HAQ         -2.4150    -2.9340    -0.9070 ha         1 HKX       0.157500
     35 HAR         -0.5020    -4.1140     0.1000 ha         1 HKX       0.138500
     36 HAS          0.6850    -3.1310     2.0340 ha         1 HKX       0.139000
     37 HAT          2.0420     1.3560    -1.5110 h1         1 HKX       0.085200
     38 HATA         2.2470     2.8090    -0.5740 h1         1 HKX       0.085200
     39 HNAU        -0.7320    -0.7320    -1.7380 hn         1 HKX       0.444300
     40 HNAA         0.7990    -0.3790    -1.1120 hn         1 HKX       0.444300
     41 HAV          3.0150    -0.5330    -0.5500 ha         1 HKX       0.143000
     42 HAX          1.3780     2.4460     2.0630 ha         1 HKX       0.156000
     43 HAZ          3.1890    -1.0570     3.7100 ha         1 HKX       0.153000
     44 HBA          2.0540     1.1070     4.0050 ha         1 HKX       0.145000
     45 OAL          0.6210     4.2350     0.1230 o          1 HKX      -0.633500
@<TRIPOS>BOND
     1     1     5 2   
     2     2     7 1   
     3     2    28 1   
     4     2    29 1   
     5     2    30 1   
     6     3     8 2   
     7     4     5 1   
     8     4    12 1   
     9     4    31 1   
    10     5     6 1   
    11     6     7 1   
    12     6    14 2   
    13     7     8 1   
    14     8     9 1   
    15     8    15 2   
    16     9    10 ar  
    17     9    16 ar  
    18    10    11 ar  
    19    10    32 1   
    20    11    18 ar  
    21    11    33 1   
    22    12    13 1   
    23    12    45 2   
    24    13    14 1   
    25    13    19 1   
    26    14    20 1   
    27    16    17 ar  
    28    16    34 1   
    29    17    18 ar  
    30    17    35 1   
    31    18    36 1   
    32    19    22 1   
    33    19    37 1   
    34    19    38 1   
    35    20    39 1   
    36    20    40 1   
    37    21    22 ar  
    38    21    24 ar  
    39    21    41 1   
    40    22    23 ar  
    41    23    26 ar  
    42    23    42 1   
    43    24    25 ar  
    44    24    27 1   
    45    25    26 ar  
    46    25    43 1   
    47    26    44 1   
@<TRIPOS>SUBSTRUCTURE
     1 HKX         1 TEMP              0 ****  ****    0 ROOT
