@<TRIPOS>MOLECULE
HKY
   23    24     1     0     0
SMALL
bcc


@<TRIPOS>ATOM
      1 C1           1.1190    -1.4390    -0.0110 ca         1 HKY      -0.104000
      2 C2          -0.2210    -1.7880    -0.0210 ca         1 HKY      -0.160000
      3 C3           0.5000     0.8650     0.0530 ca         1 HKY      -0.104000
      4 C4           1.5000    -0.0990     0.0270 ca         1 HKY      -0.128600
      5 C5          -1.2190    -0.8160     0.0100 ca         1 HKY      -0.109300
      6 C6          -0.8530     0.5300     0.0440 ca         1 HKY      -0.099300
      7 C7           2.9690     0.3000     0.0380 c          1 HKY       0.922200
      8 C8          -1.9050     1.6090     0.0780 c6         1 HKY      -0.019100
      9 C9          -2.6690    -1.2210    -0.0330 c6         1 HKY       0.212100
     10 C10         -3.2630     1.0740    -0.3410 c6         1 HKY       0.161800
     11 N11         -3.5310    -0.1420     0.4050 n7         1 HKY      -0.800200
     12 O12          3.2190     1.5220     0.0450 o          1 HKY      -0.828300
     13 O13          3.8020    -0.6280     0.0370 o          1 HKY      -0.828300
     14 H1           1.8760    -2.2120    -0.0300 ha         1 HKY       0.144000
     15 H2          -0.5010    -2.8360    -0.0490 ha         1 HKY       0.100000
     16 H3           0.7800     1.9120     0.0770 ha         1 HKY       0.143000
     17 H91C        -2.9000    -1.5530    -1.0600 h1         1 HKY       0.021200
     18 H92C        -2.8270    -2.0880     0.6120 h1         1 HKY       0.021200
     19 H81C        -1.9750     2.0160     1.0910 hc         1 HKY       0.043200
     20 H82C        -1.6090     2.4400    -0.5670 hc         1 HKY       0.043200
     21 H101        -4.0390     1.8090    -0.1200 h1         1 HKY       0.017200
     22 H102        -3.2760     0.9110    -1.4310 h1         1 HKY       0.017200
     23 H11         -4.4950    -0.4180     0.2800 hn         1 HKY       0.333800
@<TRIPOS>BOND
     1     1     2 ar  
     2     1     4 ar  
     3     1    14 1   
     4     2     5 ar  
     5     2    15 1   
     6     3     4 ar  
     7     3     6 ar  
     8     3    16 1   
     9     4     7 1   
    10     5     6 ar  
    11     5     9 1   
    12     6     8 1   
    13     7    12 1   
    14     7    13 1   
    15     8    10 1   
    16     8    19 1   
    17     8    20 1   
    18     9    11 1   
    19     9    17 1   
    20     9    18 1   
    21    10    11 1   
    22    10    21 1   
    23    10    22 1   
    24    11    23 1   
@<TRIPOS>SUBSTRUCTURE
     1 HKY         1 TEMP              0 ****  ****    0 ROOT
