@<TRIPOS>MOLECULE
HKY
   23    24     1     0     0
SMALL
No Charge or Current Charge


@<TRIPOS>ATOM
      1 C1           1.1540    -1.4570     0.0070 ca         1 HKY      -0.086000
      2 C2          -0.2040    -1.8160    -0.0100 ca         1 HKY      -0.142000
      3 C3           0.5290     0.8910     0.0390 ca         1 HKY      -0.086000
      4 C4           1.5420    -0.0970     0.0320 ca         1 HKY      -0.128600
      5 C5          -1.2060    -0.8290    -0.0010 ca         1 HKY      -0.109300
      6 C6          -0.8340     0.5340     0.0170 ca         1 HKY      -0.099300
      7 C7           3.0120     0.2940     0.0530 c          1 HKY       0.711600
      8 C8          -1.9070     1.6300     0.0490 c6         1 HKY      -0.019100
      9 C9          -2.6850    -1.2480    -0.0430 c6         1 HKY       0.212100
     10 C10         -3.3220     1.1040    -0.2950 c6         1 HKY       0.161800
     11 N11         -3.5980    -0.1700     0.4000 n7         1 HKY      -0.855400
     12 O12          3.3040     1.4820     0.0710 o          1 HKY      -0.723000
     13 O13          3.8550    -0.5930     0.0510 o          1 HKY      -0.723000
     14 H1           1.9060    -2.2430     0.0000 ha         1 HKY       0.126000
     15 H2          -0.4790    -2.8680    -0.0330 ha         1 HKY       0.082000
     16 H3           0.7980     1.9450     0.0620 ha         1 HKY       0.125000
     17 H91C        -2.9390    -1.5320    -1.0750 h1         1 HKY       0.021200
     18 H92C        -2.8380    -2.1340     0.5910 h1         1 HKY       0.021200
     19 H81C        -1.9250     2.0760     1.0520 hc         1 HKY       0.043200
     20 H82C        -1.6430     2.4400    -0.6440 hc         1 HKY       0.043200
     21 H101        -4.0740     1.8540    -0.0080 h1         1 HKY       0.017200
     22 H102        -3.4030     0.9470    -1.3810 h1         1 HKY       0.017200
     23 H11         -4.5620    -0.4610     0.1980 hn         1 HKY       0.389000
@<TRIPOS>BOND
     1     1     2 ar  
     2     1     4 ar  
     3     1    14 1   
     4     2     5 ar  
     5     2    15 1   
     6     3     4 ar  
     7     3     6 ar  
     8     3    16 1   
     9     4     7 1   
    10     5     6 ar  
    11     5     9 1   
    12     6     8 1   
    13     7    12 1   
    14     7    13 1   
    15     8    10 1   
    16     8    19 1   
    17     8    20 1   
    18     9    11 1   
    19     9    17 1   
    20     9    18 1   
    21    10    11 1   
    22    10    21 1   
    23    10    22 1   
    24    11    23 1   
@<TRIPOS>SUBSTRUCTURE
     1 HKY         1 TEMP              0 ****  ****    0 ROOT
