@<TRIPOS>MOLECULE
HKZ
   42    45     1     0     0
SMALL
abcg2


@<TRIPOS>ATOM
      1 C2          -2.8000     0.9670    -0.9070 ca         1 HKZ       0.136500
      2 C3          -1.7190     0.9680    -0.0320 ca         1 HKZ       0.003800
      3 C41         -0.8430    -3.3580     0.2750 cc         1 HKZ      -0.131000
      4 C13         -0.1730    -0.9690    -0.2920 cd         1 HKZ       0.407500
      5 C15          1.4920     0.0290    -1.1960 cc         1 HKZ       0.255300
      6 C16          0.5600     1.0040    -0.9740 cd         1 HKZ      -0.157300
      7 C17          0.5460     2.4610    -1.2440 c3         1 HKZ      -0.022800
      8 C21          2.8620     0.1660    -1.7750 c3         1 HKZ      -0.045400
      9 C24          3.9300    -0.0670    -0.7350 ca         1 HKZ      -0.072300
     10 C25          4.5800    -1.2930    -0.6400 ca         1 HKZ      -0.098000
     11 C27          5.5410    -1.5150     0.3390 ca         1 HKZ      -0.113000
     12 C29          5.8640    -0.5090     1.2380 ca         1 HKZ      -0.112000
     13 CL1         -2.6420     0.1600    -2.4200 cl         1 HKZ      -0.160500
     14 C4          -1.8550     1.6090     1.1940 ca         1 HKZ       0.136500
     15 C5          -3.0370     2.2400     1.5430 ca         1 HKZ      -0.103500
     16 C7          -4.0990     2.2240     0.6520 ca         1 HKZ      -0.084000
     17 C9          -3.9910     1.5880    -0.5750 ca         1 HKZ      -0.103500
     18 CL2         -0.5260     1.6040     2.2890 cl         1 HKZ      -0.160500
     19 N12         -0.5080     0.3500    -0.3910 na         1 HKZ      -0.072300
     20 N14          1.0250    -1.1810    -0.7670 nc         1 HKZ      -0.650000
     21 C31          5.2190     0.7200     1.1520 ca         1 HKZ      -0.113000
     22 C33          4.2590     0.9360     0.1740 ca         1 HKZ      -0.098000
     23 C35         -1.0160    -2.0090     0.2420 cd         1 HKZ       0.090000
     24 O36         -2.1850    -1.6780     0.8280 os         1 HKZ      -0.239000
     25 C37         -2.7710    -2.8210     1.2400 cd         1 HKZ       0.126900
     26 C39         -1.9930    -3.8850     0.9280 cc         1 HKZ      -0.189000
     27 H1          -0.0030    -3.9030    -0.1230 ha         1 HKZ       0.158000
     28 H2          -0.2540     2.7420    -1.9320 hc         1 HKZ       0.051033
     29 H3           0.4180     3.0460    -0.3310 hc         1 HKZ       0.051033
     30 H4           1.4880     2.7650    -1.6940 hc         1 HKZ       0.051033
     31 H5           2.9830    -0.5490    -2.5930 hc         1 HKZ       0.055200
     32 H6           2.9780     1.1610    -2.2100 hc         1 HKZ       0.055200
     33 H7           4.3360    -2.0830    -1.3410 ha         1 HKZ       0.111000
     34 H8           6.0380    -2.4750     0.3960 ha         1 HKZ       0.109000
     35 H9           6.6140    -0.6770     2.0010 ha         1 HKZ       0.109000
     36 H10         -3.1280     2.7360     2.5000 ha         1 HKZ       0.138000
     37 H11         -5.0250     2.7140     0.9190 ha         1 HKZ       0.126000
     38 H12         -4.8230     1.5750    -1.2650 ha         1 HKZ       0.138000
     39 H13          5.4680     1.5120     1.8470 ha         1 HKZ       0.109000
     40 H14          3.7600     1.8970     0.1170 ha         1 HKZ       0.111000
     41 H15         -3.7250    -2.7230     1.7320 h4         1 HKZ       0.052100
     42 H16         -2.2120    -4.9200     1.1340 ha         1 HKZ       0.143000
@<TRIPOS>BOND
     1     1     2 ar  
     2     1    13 1   
     3     1    17 ar  
     4     2    14 ar  
     5     2    19 1   
     6     3    23 2   
     7     3    26 1   
     8     3    27 1   
     9     4    19 1   
    10     4    20 2   
    11     4    23 1   
    12     5     6 2   
    13     5     8 1   
    14     5    20 1   
    15     6     7 1   
    16     6    19 1   
    17     7    28 1   
    18     7    29 1   
    19     7    30 1   
    20     8     9 1   
    21     8    31 1   
    22     8    32 1   
    23     9    10 ar  
    24     9    22 ar  
    25    10    11 ar  
    26    10    33 1   
    27    11    12 ar  
    28    11    34 1   
    29    12    21 ar  
    30    12    35 1   
    31    14    15 ar  
    32    14    18 1   
    33    15    16 ar  
    34    15    36 1   
    35    16    17 ar  
    36    16    37 1   
    37    17    38 1   
    38    21    22 ar  
    39    21    39 1   
    40    22    40 1   
    41    23    24 1   
    42    24    25 1   
    43    25    26 2   
    44    25    41 1   
    45    26    42 1   
@<TRIPOS>SUBSTRUCTURE
     1 HKZ         1 TEMP              0 ****  ****    0 ROOT
