@<TRIPOS>MOLECULE
HKZ
   42    45     1     0     0
SMALL
No Charge or Current Charge


@<TRIPOS>ATOM
      1 C2          -2.1690     1.1210    -0.7860 ca         1 HKZ       0.136500
      2 C3          -1.4580     0.7250     0.3770 ca         1 HKZ       0.003800
      3 C41         -1.7060    -3.5090    -0.3950 cc         1 HKZ      -0.131000
      4 C13         -0.4560    -1.3780    -0.1590 cd         1 HKZ       0.407500
      5 C15          1.4080    -0.5860    -0.9000 cc         1 HKZ       0.255300
      6 C16          0.8220     0.4750    -0.2460 cd         1 HKZ      -0.157300
      7 C17          1.2800     1.9090    -0.1030 c3         1 HKZ      -0.022800
      8 C21          2.7110    -0.5910    -1.6590 c3         1 HKZ      -0.045400
      9 C24          3.8800    -0.0560    -0.8410 ca         1 HKZ      -0.072300
     10 C25          4.2890    -0.7290     0.3270 ca         1 HKZ      -0.098000
     11 C27          5.3580    -0.2350     1.0950 ca         1 HKZ      -0.113000
     12 C29          6.0250     0.9360     0.6990 ca         1 HKZ      -0.112000
     13 Cl1         -1.6650     0.6340    -2.4080 cl         1 HKZ      -0.160500
     14 C4          -1.9210     1.1580     1.6400 ca         1 HKZ       0.136500
     15 C5          -3.0660     1.9640     1.7430 ca         1 HKZ      -0.103500
     16 C7          -3.7650     2.3500     0.5890 ca         1 HKZ      -0.084000
     17 C9          -3.3140     1.9280    -0.6720 ca         1 HKZ      -0.103500
     18 Cl2         -1.0760     0.6980     3.1210 cl         1 HKZ      -0.160500
     19 N12         -0.3110    -0.0820     0.3160 na         1 HKZ      -0.072300
     20 N14          0.6280    -1.7170    -0.8520 nc         1 HKZ      -0.650000
     21 C31          5.6230     1.6120    -0.4660 ca         1 HKZ      -0.113000
     22 C33          4.5540     1.1180    -1.2340 ca         1 HKZ      -0.098000
     23 C35         -1.5990    -2.2340     0.0910 cd         1 HKZ       0.090000
     24 O36         -2.6930    -1.8680     0.8470 os         1 HKZ      -0.239000
     25 C37         -3.5060    -2.9790     0.8110 cd         1 HKZ       0.126900
     26 C39         -2.9450    -3.9890     0.0730 cc         1 HKZ      -0.189000
     27 H1          -0.9930    -4.0480    -1.0120 ha         1 HKZ       0.158000
     28 H2           1.5340     2.3360    -1.0800 hc         1 HKZ       0.051033
     29 H3           0.5120     2.5490     0.3480 hc         1 HKZ       0.051033
     30 H4           2.1720     1.9700     0.5310 hc         1 HKZ       0.051033
     31 H5           2.9420    -1.6090    -1.9930 hc         1 HKZ       0.055200
     32 H6           2.5840    -0.0010    -2.5740 hc         1 HKZ       0.055200
     33 H7           3.7750    -1.6350     0.6410 ha         1 HKZ       0.111000
     34 H8           5.6670    -0.7590     1.9960 ha         1 HKZ       0.109000
     35 H9           6.8520     1.3200     1.2930 ha         1 HKZ       0.109000
     36 H10         -3.4120     2.2900     2.7210 ha         1 HKZ       0.138000
     37 H11         -4.6520     2.9750     0.6700 ha         1 HKZ       0.126000
     38 H12         -3.8540     2.2270    -1.5670 ha         1 HKZ       0.138000
     39 H13          6.1390     2.5200    -0.7730 ha         1 HKZ       0.109000
     40 H14          4.2490     1.6510    -2.1310 ha         1 HKZ       0.111000
     41 H15         -4.4470    -2.9300     1.3440 h4         1 HKZ       0.052100
     42 H16         -3.3650    -4.9710    -0.1200 ha         1 HKZ       0.143000
@<TRIPOS>BOND
     1     1     2 ar  
     2     1    13 1   
     3     1    17 ar  
     4     2    14 ar  
     5     2    19 1   
     6     3    23 2   
     7     3    26 1   
     8     3    27 1   
     9     4    19 1   
    10     4    20 2   
    11     4    23 1   
    12     5     6 2   
    13     5     8 1   
    14     5    20 1   
    15     6     7 1   
    16     6    19 1   
    17     7    28 1   
    18     7    29 1   
    19     7    30 1   
    20     8     9 1   
    21     8    31 1   
    22     8    32 1   
    23     9    10 ar  
    24     9    22 ar  
    25    10    11 ar  
    26    10    33 1   
    27    11    12 ar  
    28    11    34 1   
    29    12    21 ar  
    30    12    35 1   
    31    14    15 ar  
    32    14    18 1   
    33    15    16 ar  
    34    15    36 1   
    35    16    17 ar  
    36    16    37 1   
    37    17    38 1   
    38    21    22 ar  
    39    21    39 1   
    40    22    40 1   
    41    23    24 1   
    42    24    25 1   
    43    25    26 2   
    44    25    41 1   
    45    26    42 1   
@<TRIPOS>SUBSTRUCTURE
     1 HKZ         1 TEMP              0 ****  ****    0 ROOT
