@<TRIPOS>MOLECULE
HL0
   43    43     1     0     0
SMALL
bcc


@<TRIPOS>ATOM
      1 N            3.1590    -0.5030     0.2240 ns         1 HL0      -0.582900
      2 C1          -9.3300    -0.4180    -0.4350 c3         1 HL0      -0.088100
      3 O1           2.1460     1.3420     1.0350 o          1 HL0      -0.574100
      4 C2          -8.0980     0.2170     0.1950 c3         1 HL0      -0.074400
      5 O2           6.0420    -0.1790    -1.0930 os         1 HL0      -0.405900
      6 C3          -6.7930    -0.3400    -0.3580 c3         1 HL0      -0.075400
      7 O3           5.0570     1.7720    -0.7430 o          1 HL0      -0.533500
      8 C4          -5.5530     0.2860     0.2670 c3         1 HL0      -0.074400
      9 C5          -4.2520    -0.2770    -0.2890 c3         1 HL0      -0.074400
     10 C6          -3.0070     0.3380     0.3370 c3         1 HL0      -0.073400
     11 C7          -1.7140    -0.2380    -0.2260 c3         1 HL0      -0.077400
     12 C8          -0.4630     0.3560     0.4090 c3         1 HL0      -0.064400
     13 C9           0.8020    -0.2430    -0.1850 c3         1 HL0      -0.155400
     14 C10          2.0820     0.2900     0.4230 c          1 HL0       0.672100
     15 C11          4.4910    -0.1620     0.6640 c5         1 HL0       0.010700
     16 C12          5.3840    -1.3840     0.8130 c5         1 HL0      -0.135400
     17 C13          6.0060    -1.5180    -0.5720 c5         1 HL0       0.132400
     18 C14          5.2050     0.6230    -0.4380 c          1 HL0       0.704600
     19 HN           3.0370    -1.3560    -0.3000 hn         1 HL0       0.313500
     20 H1         -10.2510    -0.0030    -0.0230 hc         1 HL0       0.031033
     21 H1A         -9.3490    -0.2570    -1.5140 hc         1 HL0       0.031033
     22 H1B         -9.3490    -1.4960    -0.2650 hc         1 HL0       0.031033
     23 H2          -8.1240     1.3000     0.0390 hc         1 HL0       0.036700
     24 H2A         -8.1240     0.0690     1.2800 hc         1 HL0       0.036700
     25 H3          -6.7680    -1.4250    -0.2040 hc         1 HL0       0.036200
     26 H3A         -6.7670    -0.1910    -1.4440 hc         1 HL0       0.036200
     27 H4          -5.5770     1.3710     0.1130 hc         1 HL0       0.038200
     28 H4A         -5.5800     0.1370     1.3530 hc         1 HL0       0.038200
     29 H5          -4.2340    -1.3620    -0.1380 hc         1 HL0       0.036200
     30 H5A         -4.2250    -0.1250    -1.3740 hc         1 HL0       0.036200
     31 H6          -3.0200     1.4230     0.1850 hc         1 HL0       0.041200
     32 H6A         -3.0310     0.1840     1.4210 hc         1 HL0       0.041200
     33 H7          -1.7120    -1.3240    -0.0870 hc         1 HL0       0.034700
     34 H7A         -1.6850    -0.0740    -1.3090 hc         1 HL0       0.034700
     35 H8          -0.4620     1.4400     0.2720 hc         1 HL0       0.056700
     36 H8A         -0.4860     0.1810     1.4880 hc         1 HL0       0.056700
     37 H9           0.7810    -1.3330    -0.0940 hc         1 HL0       0.055700
     38 H9A          0.8400    -0.0390    -1.2610 hc         1 HL0       0.055700
     39 H11          4.4280     0.4370     1.5720 h1         1 HL0       0.116700
     40 H12          6.1540    -1.1820     1.5570 hc         1 HL0       0.074700
     41 H12A         4.8450    -2.2780     1.1220 hc         1 HL0       0.074700
     42 H13          5.4090    -2.1370    -1.2440 h1         1 HL0       0.062700
     43 H13A         7.0230    -1.9030    -0.5540 h1         1 HL0       0.062700
@<TRIPOS>BOND
     1     1    14 1   
     2     1    15 1   
     3     1    19 1   
     4     2     4 1   
     5     2    20 1   
     6     2    21 1   
     7     2    22 1   
     8     3    14 2   
     9     4     6 1   
    10     4    23 1   
    11     4    24 1   
    12     5    17 1   
    13     5    18 1   
    14     6     8 1   
    15     6    25 1   
    16     6    26 1   
    17     7    18 2   
    18     8     9 1   
    19     8    27 1   
    20     8    28 1   
    21     9    10 1   
    22     9    29 1   
    23     9    30 1   
    24    10    11 1   
    25    10    31 1   
    26    10    32 1   
    27    11    12 1   
    28    11    33 1   
    29    11    34 1   
    30    12    13 1   
    31    12    35 1   
    32    12    36 1   
    33    13    14 1   
    34    13    37 1   
    35    13    38 1   
    36    15    16 1   
    37    15    18 1   
    38    15    39 1   
    39    16    17 1   
    40    16    40 1   
    41    16    41 1   
    42    17    42 1   
    43    17    43 1   
@<TRIPOS>SUBSTRUCTURE
     1 HL0         1 TEMP              0 ****  ****    0 ROOT
