@<TRIPOS>MOLECULE
HL0
   43    43     1     0     0
SMALL
No Charge or Current Charge


@<TRIPOS>ATOM
      1 N            3.1960    -0.0440    -0.6030 ns         1 HL0      -0.515900
      2 C1          -9.0850    -0.8380     0.0610 c3         1 HL0      -0.088100
      3 O1           2.6390     2.0490     0.1450 o          1 HL0      -0.574100
      4 C2          -7.7160    -0.6670     0.7480 c3         1 HL0      -0.074400
      5 O2           5.4610    -2.1600     0.2420 os         1 HL0      -0.429100
      6 C3          -6.5670    -0.4100    -0.2510 c3         1 HL0      -0.075400
      7 O3           6.1960    -0.9090    -1.5170 o          1 HL0      -0.458000
      8 C4          -5.1950    -0.2380     0.4370 c3         1 HL0      -0.074400
      9 C5          -4.0460     0.0200    -0.5630 c3         1 HL0      -0.074400
     10 C6          -2.6740     0.1910     0.1250 c3         1 HL0      -0.073400
     11 C7          -1.5250     0.4490    -0.8750 c3         1 HL0      -0.077400
     12 C8          -0.1530     0.6210    -0.1870 c3         1 HL0      -0.064400
     13 C9           0.9970     0.8780    -1.1890 c3         1 HL0      -0.155400
     14 C10          2.3410     1.0350    -0.4710 c          1 HL0       0.605100
     15 C11          4.5200     0.0090     0.0730 c5         1 HL0       0.010700
     16 C12          4.2760    -0.5320     1.5070 c5         1 HL0      -0.135400
     17 C13          4.4330    -2.0540     1.2550 c5         1 HL0       0.155600
     18 C14          5.4360    -1.0590    -0.5710 c          1 HL0       0.629100
     19 HN           2.8650    -0.8310    -1.1530 hn         1 HL0       0.313500
     20 H1          -9.8670    -1.0180     0.8090 hc         1 HL0       0.031033
     21 H1A         -9.3520     0.0630    -0.5040 hc         1 HL0       0.031033
     22 H1B         -9.0690    -1.6900    -0.6300 hc         1 HL0       0.031033
     23 H2          -7.7750     0.1680     1.4570 hc         1 HL0       0.036700
     24 H2A         -7.4950    -1.5690     1.3320 hc         1 HL0       0.036700
     25 H3          -6.5120    -1.2450    -0.9600 hc         1 HL0       0.036200
     26 H3A         -6.7930     0.4920    -0.8350 hc         1 HL0       0.036200
     27 H4          -5.2500     0.5980     1.1460 hc         1 HL0       0.038200
     28 H4A         -4.9690    -1.1390     1.0200 hc         1 HL0       0.038200
     29 H5          -3.9910    -0.8160    -1.2720 hc         1 HL0       0.036200
     30 H5A         -4.2710     0.9210    -1.1460 hc         1 HL0       0.036200
     31 H6          -2.7290     1.0270     0.8340 hc         1 HL0       0.041200
     32 H6A         -2.4480    -0.7100     0.7090 hc         1 HL0       0.041200
     33 H7          -1.4710    -0.3870    -1.5840 hc         1 HL0       0.034700
     34 H7A         -1.7510     1.3500    -1.4580 hc         1 HL0       0.034700
     35 H8          -0.2070     1.4560     0.5240 hc         1 HL0       0.056700
     36 H8A          0.0740    -0.2810     0.3980 hc         1 HL0       0.056700
     37 H9           1.0420     0.0350    -1.8890 hc         1 HL0       0.055700
     38 H9A          0.7810     1.8040    -1.7360 hc         1 HL0       0.055700
     39 H11          5.0090     0.9930     0.0450 h1         1 HL0       0.116700
     40 H12          5.0490    -0.1770     2.1980 hc         1 HL0       0.074700
     41 H12A         3.3040    -0.2620     1.9370 hc         1 HL0       0.074700
     42 H13          3.5050    -2.4880     0.8590 h1         1 HL0       0.062700
     43 H13A         4.7250    -2.6140     2.1530 h1         1 HL0       0.062700
@<TRIPOS>BOND
     1     1    14 1   
     2     1    15 1   
     3     1    19 1   
     4     2     4 1   
     5     2    20 1   
     6     2    21 1   
     7     2    22 1   
     8     3    14 2   
     9     4     6 1   
    10     4    23 1   
    11     4    24 1   
    12     5    17 1   
    13     5    18 1   
    14     6     8 1   
    15     6    25 1   
    16     6    26 1   
    17     7    18 2   
    18     8     9 1   
    19     8    27 1   
    20     8    28 1   
    21     9    10 1   
    22     9    29 1   
    23     9    30 1   
    24    10    11 1   
    25    10    31 1   
    26    10    32 1   
    27    11    12 1   
    28    11    33 1   
    29    11    34 1   
    30    12    13 1   
    31    12    35 1   
    32    12    36 1   
    33    13    14 1   
    34    13    37 1   
    35    13    38 1   
    36    15    16 1   
    37    15    18 1   
    38    15    39 1   
    39    16    17 1   
    40    16    40 1   
    41    16    41 1   
    42    17    42 1   
    43    17    43 1   
@<TRIPOS>SUBSTRUCTURE
     1 HL0         1 TEMP              0 ****  ****    0 ROOT
