@<TRIPOS>MOLECULE
HL1
   46    49     1     0     0
SMALL
abcg2


@<TRIPOS>ATOM
      1 C1          -4.0740    -0.7280    -1.1710 ca         1 HL1       0.208000
      2 C2          -3.1870    -0.0860    -0.3240 ca         1 HL1      -0.116300
      3 C3          -3.7240     0.7090     0.6880 ca         1 HL1      -0.085000
      4 C4          -5.0870     0.8420     0.8250 ca         1 HL1       0.108000
      5 C5          -5.9460     0.1880    -0.0430 ca         1 HL1       0.168000
      6 C6          -5.4480    -0.6060    -1.0520 ca         1 HL1      -0.183000
      7 F7          -3.6040    -1.5020    -2.1570 f          1 HL1      -0.159000
      8 F8          -7.2620     0.3340     0.1060 f          1 HL1      -0.153000
      9 F9          -5.5990     1.6050     1.7950 f          1 HL1      -0.157000
     10 C10         -1.7000    -0.2600    -0.4460 c6         1 HL1       0.226600
     11 O11         -1.1200     1.0280    -0.3300 os         1 HL1      -0.343100
     12 C12          0.2350     1.0720    -0.2750 ca         1 HL1       0.135100
     13 C13          1.0070    -0.0230     0.0420 ca         1 HL1      -0.152300
     14 C14          0.3600    -1.3330     0.3910 c6         1 HL1      -0.029100
     15 C15         -1.1370    -1.1900     0.6290 c6         1 HL1       0.135500
     16 N16         -1.7800    -2.4860     0.5280 n8         1 HL1      -0.995200
     17 C17          2.4220     0.1160     0.0250 ca         1 HL1       0.017000
     18 C20          3.0090     1.3650    -0.2830 ca         1 HL1      -0.052000
     19 C21          2.1700     2.4640    -0.5670 ca         1 HL1      -0.071000
     20 C22          0.8120     2.3240    -0.5700 ca         1 HL1      -0.125000
     21 C23          3.2820    -0.9780     0.3020 ca         1 HL1      -0.196000
     22 C24          4.6440    -0.8420     0.2670 ca         1 HL1       0.140100
     23 C25          5.2310     0.4240    -0.0500 ca         1 HL1       0.120100
     24 C26          4.4200     1.4920    -0.3110 ca         1 HL1      -0.169000
     25 O27          5.5260    -1.8230     0.5080 os         1 HL1      -0.318100
     26 C28          5.0270    -3.1030     0.8420 c3         1 HL1       0.143900
     27 O30          6.5740     0.4370    -0.0610 os         1 HL1      -0.319100
     28 C31          7.2200     1.6580    -0.3600 c3         1 HL1       0.143900
     29 H1          -3.0750     1.2330     1.3780 ha         1 HL1       0.149000
     30 H2          -6.1140    -1.1180    -1.7340 ha         1 HL1       0.155000
     31 H3          -1.4450    -0.6850    -1.4250 h1         1 HL1       0.082700
     32 H4           0.5200    -2.0620    -0.4110 hc         1 HL1       0.060200
     33 H5           0.8190    -1.7560     1.2890 hc         1 HL1       0.060200
     34 H6          -1.2930    -0.7070     1.6050 h1         1 HL1       0.036700
     35 H7          -1.2730    -3.1590     1.0890 hn         1 HL1       0.401000
     36 H8          -2.7080    -2.4430     0.9310 hn         1 HL1       0.401000
     37 H10          2.6150     3.4240    -0.8010 ha         1 HL1       0.116000
     38 H11          0.1680     3.1620    -0.8040 ha         1 HL1       0.129000
     39 H12          2.8480    -1.9400     0.5390 ha         1 HL1       0.119000
     40 H13          4.8370     2.4610    -0.5550 ha         1 HL1       0.121000
     41 H14          5.8920    -3.7420     0.9950 h1         1 HL1       0.041367
     42 H15          4.4370    -3.0810     1.7620 h1         1 HL1       0.041367
     43 H16          4.4130    -3.5220     0.0410 h1         1 HL1       0.041367
     44 H17          6.9510     2.0300    -1.3520 h1         1 HL1       0.041033
     45 H18          6.9900     2.4310     0.3790 h1         1 HL1       0.041033
     46 H19          8.2880     1.4570    -0.3370 h1         1 HL1       0.041033
@<TRIPOS>BOND
     1     1     2 ar  
     2     1     6 ar  
     3     1     7 1   
     4     2     3 ar  
     5     2    10 1   
     6     3     4 ar  
     7     3    29 1   
     8     4     5 ar  
     9     4     9 1   
    10     5     6 ar  
    11     5     8 1   
    12     6    30 1   
    13    10    11 1   
    14    10    15 1   
    15    10    31 1   
    16    11    12 1   
    17    12    13 ar  
    18    12    20 ar  
    19    13    14 1   
    20    13    17 ar  
    21    14    15 1   
    22    14    32 1   
    23    14    33 1   
    24    15    16 1   
    25    15    34 1   
    26    16    35 1   
    27    16    36 1   
    28    17    18 ar  
    29    17    21 ar  
    30    18    19 ar  
    31    18    24 ar  
    32    19    20 ar  
    33    19    37 1   
    34    20    38 1   
    35    21    22 ar  
    36    21    39 1   
    37    22    23 ar  
    38    22    25 1   
    39    23    24 ar  
    40    23    27 1   
    41    24    40 1   
    42    25    26 1   
    43    26    41 1   
    44    26    42 1   
    45    26    43 1   
    46    27    28 1   
    47    28    44 1   
    48    28    45 1   
    49    28    46 1   
@<TRIPOS>SUBSTRUCTURE
     1 HL1         1 TEMP              0 ****  ****    0 ROOT
