@<TRIPOS>MOLECULE
HL1
   46    49     1     0     0
SMALL
No Charge or Current Charge


@<TRIPOS>ATOM
      1 C1          -4.1770    -0.5800    -1.3100 ca         1 HL1       0.208000
      2 C2          -3.2780    -0.1210    -0.3210 ca         1 HL1      -0.116300
      3 C3          -3.7880     0.5450     0.8160 ca         1 HL1      -0.085000
      4 C4          -5.1720     0.7400     0.9600 ca         1 HL1       0.108000
      5 C5          -6.0570     0.2750    -0.0310 ca         1 HL1       0.168000
      6 C6          -5.5600    -0.3840    -1.1650 ca         1 HL1      -0.183000
      7 F7          -3.7220    -1.2150    -2.4120 f          1 HL1      -0.159000
      8 F8          -7.3900     0.4600     0.1010 f          1 HL1      -0.153000
      9 F9          -5.6460     1.3800     2.0540 f          1 HL1      -0.157000
     10 C10         -1.7630    -0.3280    -0.4730 c6         1 HL1       0.226600
     11 O11         -1.1340     0.9690    -0.4420 os         1 HL1      -0.343100
     12 C12          0.2410     1.0530    -0.3890 ca         1 HL1       0.135100
     13 C13          1.0460    -0.0560    -0.0230 ca         1 HL1      -0.152300
     14 C14          0.3710    -1.3840     0.3750 c6         1 HL1      -0.029100
     15 C15         -1.1480    -1.2430     0.6270 c6         1 HL1       0.135500
     16 N16         -1.7910    -2.5840     0.7080 n8         1 HL1      -0.995200
     17 C17          2.4630     0.0880    -0.0270 ca         1 HL1       0.017000
     18 C20          3.0380     1.3400    -0.3530 ca         1 HL1      -0.052000
     19 C21          2.2190     2.4340    -0.6800 ca         1 HL1      -0.071000
     20 C22          0.8260     2.2870    -0.7000 ca         1 HL1      -0.125000
     21 C23          3.3210    -0.9940     0.2830 ca         1 HL1      -0.196000
     22 C24          4.7250    -0.8280     0.2800 ca         1 HL1       0.140100
     23 C25          5.2850     0.4300    -0.0380 ca         1 HL1       0.120100
     24 C26          4.4340     1.5090    -0.3550 ca         1 HL1      -0.169000
     25 O27          5.5840    -1.8740     0.5820 os         1 HL1      -0.318100
     26 C28          5.1170    -3.1920     0.9200 c3         1 HL1       0.143900
     27 O30          6.6650     0.5640    -0.0310 os         1 HL1      -0.319100
     28 C31          7.3240     1.8040    -0.3420 c3         1 HL1       0.143900
     29 H1          -3.1150     0.9160     1.5860 ha         1 HL1       0.149000
     30 H2          -6.2430    -0.7420    -1.9300 ha         1 HL1       0.155000
     31 H3          -1.5440    -0.7790    -1.4510 h1         1 HL1       0.082700
     32 H4           0.5480    -2.1220    -0.4190 hc         1 HL1       0.060200
     33 H5           0.8290    -1.7850     1.2890 hc         1 HL1       0.060200
     34 H6          -1.2950    -0.7530     1.6010 h1         1 HL1       0.036700
     35 H7          -1.4000    -3.0940     1.5090 hn         1 HL1       0.401000
     36 H8          -2.7790    -2.4650     0.9630 hn         1 HL1       0.401000
     37 H10          2.6590     3.3970    -0.9280 ha         1 HL1       0.116000
     38 H11          0.1960     3.1320    -0.9660 ha         1 HL1       0.129000
     39 H12          2.9010    -1.9640     0.5160 ha         1 HL1       0.119000
     40 H13          4.8420     2.4840    -0.6070 ha         1 HL1       0.121000
     41 H14          5.9670    -3.8560     1.1220 h1         1 HL1       0.041367
     42 H15          4.4870    -3.1640     1.8180 h1         1 HL1       0.041367
     43 H16          4.5370    -3.6240     0.0940 h1         1 HL1       0.041367
     44 H17          7.0800     2.1310    -1.3610 h1         1 HL1       0.041033
     45 H18          7.0260     2.5910     0.3620 h1         1 HL1       0.041033
     46 H19          8.4120     1.6830    -0.2760 h1         1 HL1       0.041033
@<TRIPOS>BOND
     1     1     2 ar  
     2     1     6 ar  
     3     1     7 1   
     4     2     3 ar  
     5     2    10 1   
     6     3     4 ar  
     7     3    29 1   
     8     4     5 ar  
     9     4     9 1   
    10     5     6 ar  
    11     5     8 1   
    12     6    30 1   
    13    10    11 1   
    14    10    15 1   
    15    10    31 1   
    16    11    12 1   
    17    12    13 ar  
    18    12    20 ar  
    19    13    14 1   
    20    13    17 ar  
    21    14    15 1   
    22    14    32 1   
    23    14    33 1   
    24    15    16 1   
    25    15    34 1   
    26    16    35 1   
    27    16    36 1   
    28    17    18 ar  
    29    17    21 ar  
    30    18    19 ar  
    31    18    24 ar  
    32    19    20 ar  
    33    19    37 1   
    34    20    38 1   
    35    21    22 ar  
    36    21    39 1   
    37    22    23 ar  
    38    22    25 1   
    39    23    24 ar  
    40    23    27 1   
    41    24    40 1   
    42    25    26 1   
    43    26    41 1   
    44    26    42 1   
    45    26    43 1   
    46    27    28 1   
    47    28    44 1   
    48    28    45 1   
    49    28    46 1   
@<TRIPOS>SUBSTRUCTURE
     1 HL1         1 TEMP              0 ****  ****    0 ROOT
