@<TRIPOS>MOLECULE
HL2
   22    21     1     0     0
SMALL
bcc


@<TRIPOS>ATOM
      1 C            9.6790   -22.9970   -43.3080 c          1 HL2       0.932600
      2 N            9.5250   -24.7590   -44.9310 n8         1 HL2      -0.868800
      3 O           10.8590   -22.9840   -42.9100 o          1 HL2      -0.834300
      4 CA           9.0380   -24.3810   -43.6020 c3         1 HL2       0.030500
      5 CB           9.4150   -25.4640   -42.5870 c3         1 HL2       0.160100
      6 CG           8.6340   -25.3640   -41.2660 c3         1 HL2      -0.082700
      7 OH           9.1530   -26.7260   -43.1920 oh         1 HL2      -0.624800
      8 CD1          8.7550   -24.0120   -40.5710 c3         1 HL2      -0.085100
      9 CD2          9.0620   -26.4680   -40.2990 c3         1 HL2      -0.085100
     10 OXT          8.9690   -22.0020   -43.5660 o          1 HL2      -0.834300
     11 HN           9.0850   -25.6220   -45.2190 hn         1 HL2       0.319300
     12 HNA          9.2250   -24.0590   -45.5980 hn         1 HL2       0.319300
     13 HA           7.9420   -24.2630   -43.5840 h1         1 HL2       0.004700
     14 HB          10.4880   -25.3680   -42.3750 h1         1 HL2       0.065700
     15 HG           7.5750   -25.5190   -41.5110 hc         1 HL2       0.036700
     16 HOH          9.6960   -27.3900   -42.7600 ho         1 HL2       0.379000
     17 HD1          8.2090   -24.0330   -39.6250 hc         1 HL2       0.027867
     18 HD1A         9.7940   -23.7700   -40.3460 hc         1 HL2       0.027867
     19 HD1B         8.3390   -23.1980   -41.1630 hc         1 HL2       0.027867
     20 HD2          8.5150   -26.3900   -39.3580 hc         1 HL2       0.027867
     21 HD2A         8.8760   -27.4690   -40.6900 hc         1 HL2       0.027867
     22 HD2B        10.1270   -26.3900   -40.0660 hc         1 HL2       0.027867
@<TRIPOS>BOND
     1     1     3 1   
     2     1     4 1   
     3     1    10 1   
     4     2     4 1   
     5     2    11 1   
     6     2    12 1   
     7     4     5 1   
     8     4    13 1   
     9     5     6 1   
    10     5     7 1   
    11     5    14 1   
    12     6     8 1   
    13     6     9 1   
    14     6    15 1   
    15     7    16 1   
    16     8    17 1   
    17     8    18 1   
    18     8    19 1   
    19     9    20 1   
    20     9    21 1   
    21     9    22 1   
@<TRIPOS>SUBSTRUCTURE
     1 HL2         1 TEMP              0 ****  ****    0 ROOT
