@<TRIPOS>MOLECULE
HL2
   22    21     1     0     0
SMALL
No Charge or Current Charge


@<TRIPOS>ATOM
      1 C            9.7650   -22.8910   -43.2780 c          1 HL2       0.722000
      2 N            9.4600   -24.7530   -45.0890 n8         1 HL2      -0.979200
      3 O           10.9230   -22.8320   -42.8810 o          1 HL2      -0.729000
      4 CA           9.1530   -24.3010   -43.6740 c3         1 HL2       0.030500
      5 CB           9.4890   -25.4240   -42.6180 c3         1 HL2       0.183300
      6 CG           8.6590   -25.3740   -41.2860 c3         1 HL2      -0.082700
      7 OH           9.2770   -26.7190   -43.2250 oh         1 HL2      -0.687000
      8 CD1          8.7280   -24.0180   -40.5410 c3         1 HL2      -0.085100
      9 CD2          9.0540   -26.5150   -40.3100 c3         1 HL2      -0.085100
     10 OXT          9.0710   -21.8950   -43.4490 o          1 HL2      -0.729000
     11 HN           9.2080   -25.7480   -45.1330 hn         1 HL2       0.374500
     12 HNA          8.8140   -24.2910   -45.7400 hn         1 HL2       0.374500
     13 HA           8.0610   -24.1850   -43.6470 h1         1 HL2       0.004700
     14 HB          10.5520   -25.3270   -42.3550 h1         1 HL2       0.065700
     15 HG           7.6050   -25.5310   -41.5510 hc         1 HL2       0.036700
     16 HOH          9.4760   -27.3860   -42.5350 ho         1 HL2       0.418000
     17 HD1          8.2070   -24.0770   -39.5780 hc         1 HL2       0.027867
     18 HD1A         9.7680   -23.7280   -40.3470 hc         1 HL2       0.027867
     19 HD1B         8.2390   -23.2250   -41.1170 hc         1 HL2       0.027867
     20 HD2          8.4670   -26.4550   -39.3850 hc         1 HL2       0.027867
     21 HD2A         8.8670   -27.5040   -40.7450 hc         1 HL2       0.027867
     22 HD2B        10.1160   -26.4490   -40.0430 hc         1 HL2       0.027867
@<TRIPOS>BOND
     1     1     3 1   
     2     1     4 1   
     3     1    10 1   
     4     2     4 1   
     5     2    11 1   
     6     2    12 1   
     7     4     5 1   
     8     4    13 1   
     9     5     6 1   
    10     5     7 1   
    11     5    14 1   
    12     6     8 1   
    13     6     9 1   
    14     6    15 1   
    15     7    16 1   
    16     8    17 1   
    17     8    18 1   
    18     8    19 1   
    19     9    20 1   
    20     9    21 1   
    21     9    22 1   
@<TRIPOS>SUBSTRUCTURE
     1 HL2         1 TEMP              0 ****  ****    0 ROOT
