@<TRIPOS>MOLECULE
HL3
   23    23     1     0     0
SMALL
bcc


@<TRIPOS>ATOM
      1 C01         32.4220    16.3910    -8.9920 cc         1 HL3       0.265200
      2 C02         32.7050    17.5440    -9.6670 cd         1 HL3      -0.329600
      3 N03         31.5000    18.1210    -9.9440 na         1 HL3      -0.164900
      4 C04         30.5350    17.3090    -9.4250 cd         1 HL3       0.362000
      5 N05         31.0800    16.2570    -8.8460 nc         1 HL3      -0.679000
      6 C06         29.0310    17.5200    -9.5100 c          1 HL3       0.849100
      7 O07         28.3540    16.8050    -8.7560 o          1 HL3      -0.807300
      8 O08         28.6160    18.3620   -10.3310 o          1 HL3      -0.807300
      9 C09         31.3700    19.4310   -10.5830 c3         1 HL3       0.043000
     10 C10         32.0020    20.5180    -9.7150 c3         1 HL3      -0.079400
     11 C11         31.4130    20.5960    -8.3150 c3         1 HL3      -0.088100
     12 C12         31.9610    19.3990   -11.9860 c3         1 HL3      -0.092100
     13 H1          33.1200    15.6590    -8.6130 h4         1 HL3       0.003100
     14 H2          33.6420    17.9930    -9.9570 h4         1 HL3       0.142000
     15 H4          30.3030    19.6160   -10.6580 h1         1 HL3       0.130700
     16 H5          33.0860    20.3710    -9.6610 hc         1 HL3       0.024700
     17 H6          31.8520    21.4710   -10.2290 hc         1 HL3       0.024700
     18 H7          31.8450    21.4280    -7.7570 hc         1 HL3       0.036700
     19 H8          30.3330    20.7460    -8.3480 hc         1 HL3       0.036700
     20 H9          31.6050    19.6870    -7.7440 hc         1 HL3       0.036700
     21 H10         31.7900    20.3560   -12.4790 hc         1 HL3       0.031033
     22 H11         33.0370    19.2210   -11.9730 hc         1 HL3       0.031033
     23 H12         31.4920    18.6220   -12.5910 hc         1 HL3       0.031033
@<TRIPOS>BOND
     1     1     2 2   
     2     1     5 1   
     3     1    13 1   
     4     2     3 1   
     5     2    14 1   
     6     3     4 1   
     7     3     9 1   
     8     4     5 2   
     9     4     6 1   
    10     6     7 1   
    11     6     8 1   
    12     9    10 1   
    13     9    12 1   
    14     9    15 1   
    15    10    11 1   
    16    10    16 1   
    17    10    17 1   
    18    11    18 1   
    19    11    19 1   
    20    11    20 1   
    21    12    21 1   
    22    12    22 1   
    23    12    23 1   
@<TRIPOS>SUBSTRUCTURE
     1 HL3         1 TEMP              0 ****  ****    0 ROOT
