@<TRIPOS>MOLECULE
HL3
   23    23     1     0     0
SMALL
No Charge or Current Charge


@<TRIPOS>ATOM
      1 C01         32.4510    16.2720    -9.0990 cc         1 HL3       0.199900
      2 C02         32.7570    17.4360    -9.7350 cd         1 HL3      -0.297000
      3 N03         31.5480    18.0870    -9.9380 na         1 HL3      -0.143500
      4 C04         30.5350    17.2720    -9.3870 cd         1 HL3       0.362000
      5 N05         31.1140    16.1650    -8.8850 nc         1 HL3      -0.679000
      6 C06         29.0160    17.5310    -9.3230 c          1 HL3       0.638500
      7 O07         28.2860    16.6930    -8.7960 o          1 HL3      -0.702000
      8 O08         28.5400    18.5590    -9.7920 o          1 HL3      -0.702000
      9 C09         31.4140    19.4120   -10.5960 c3         1 HL3       0.072300
     10 C10         31.9790    20.5590    -9.7170 c3         1 HL3      -0.079400
     11 C11         31.2860    20.7010    -8.3450 c3         1 HL3      -0.088100
     12 C12         32.0590    19.4110   -12.0020 c3         1 HL3      -0.092100
     13 H1          33.1220    15.4890    -8.7700 h4         1 HL3       0.003100
     14 H2          33.7150    17.8340   -10.0460 h4         1 HL3       0.124000
     15 H4          30.3550    19.6280   -10.7590 h1         1 HL3       0.130700
     16 H5          33.0540    20.4060    -9.5590 hc         1 HL3       0.024700
     17 H6          31.8720    21.5080   -10.2570 hc         1 HL3       0.024700
     18 H7          31.6960    21.5590    -7.7990 hc         1 HL3       0.036700
     19 H8          30.2080    20.8590    -8.4690 hc         1 HL3       0.036700
     20 H9          31.4370    19.8050    -7.7310 hc         1 HL3       0.036700
     21 H10         31.8720    20.3630   -12.5120 hc         1 HL3       0.031033
     22 H11         33.1430    19.2630   -11.9420 hc         1 HL3       0.031033
     23 H12         31.6350    18.6090   -12.6190 hc         1 HL3       0.031033
@<TRIPOS>BOND
     1     1     2 2   
     2     1     5 1   
     3     1    13 1   
     4     2     3 1   
     5     2    14 1   
     6     3     4 1   
     7     3     9 1   
     8     4     5 2   
     9     4     6 1   
    10     6     7 1   
    11     6     8 1   
    12     9    10 1   
    13     9    12 1   
    14     9    15 1   
    15    10    11 1   
    16    10    16 1   
    17    10    17 1   
    18    11    18 1   
    19    11    19 1   
    20    11    20 1   
    21    12    21 1   
    22    12    22 1   
    23    12    23 1   
@<TRIPOS>SUBSTRUCTURE
     1 HL3         1 TEMP              0 ****  ****    0 ROOT
