@<TRIPOS>MOLECULE
HL4
   25    25     1     0     0
SMALL
bcc


@<TRIPOS>ATOM
      1 C1           1.3260     0.2360    -0.6850 c5         1 HL4       0.008700
      2 C2           2.0440    -0.8840     0.0700 c          1 HL4       0.705600
      3 C4           3.0720     1.0590     0.7110 c5         1 HL4       0.132400
      4 C5           2.3200     1.3840    -0.5740 c5         1 HL4      -0.136400
      5 O6           1.7970    -2.0570     0.0590 o          1 HL4      -0.535500
      6 N7           0.0640     0.5150    -0.0440 ns         1 HL4      -0.582900
      7 C8          -1.1090    -0.0280    -0.4450 c          1 HL4       0.672100
      8 O9          -1.1840    -0.8040    -1.3830 o          1 HL4      -0.577100
      9 C10         -2.3080     0.4270     0.3580 c3         1 HL4      -0.156400
     10 C11         -3.6280    -0.1710    -0.1050 c3         1 HL4      -0.064400
     11 C13         -4.7950     0.3420     0.7270 c3         1 HL4      -0.093100
     12 OAP          3.0170    -0.3730     0.8210 os         1 HL4      -0.404900
     13 H1           1.1400    -0.0690    -1.7130 h1         1 HL4       0.118700
     14 H4           4.1170     1.3580     0.6890 h1         1 HL4       0.062700
     15 H4A          2.6010     1.4930     1.5940 h1         1 HL4       0.062700
     16 H5           2.9990     1.3550    -1.4260 hc         1 HL4       0.074700
     17 H5A          1.8480     2.3650    -0.5510 hc         1 HL4       0.074700
     18 HN7          0.0580     1.1440     0.7440 hn         1 HL4       0.313500
     19 H10         -2.1350     0.1830     1.4120 hc         1 HL4       0.056200
     20 H10A        -2.3580     1.5200     0.3160 hc         1 HL4       0.056200
     21 H11         -3.7930     0.0710    -1.1570 hc         1 HL4       0.056700
     22 H11A        -3.5830    -1.2600    -0.0420 hc         1 HL4       0.056700
     23 H13         -4.6700     0.0960     1.7830 hc         1 HL4       0.033367
     24 H13A        -4.8910     1.4270     0.6520 hc         1 HL4       0.033367
     25 H13B        -5.7370    -0.0970     0.3960 hc         1 HL4       0.033367
@<TRIPOS>BOND
     1     1     2 1   
     2     1     4 1   
     3     1     6 1   
     4     1    13 1   
     5     2     5 2   
     6     2    12 1   
     7     3     4 1   
     8     3    12 1   
     9     3    14 1   
    10     3    15 1   
    11     4    16 1   
    12     4    17 1   
    13     6     7 1   
    14     6    18 1   
    15     7     8 2   
    16     7     9 1   
    17     9    10 1   
    18     9    19 1   
    19     9    20 1   
    20    10    11 1   
    21    10    21 1   
    22    10    22 1   
    23    11    23 1   
    24    11    24 1   
    25    11    25 1   
@<TRIPOS>SUBSTRUCTURE
     1 HL4         1 TEMP              0 ****  ****    0 ROOT
