@<TRIPOS>MOLECULE
HL4
   25    25     1     0     0
SMALL
No Charge or Current Charge


@<TRIPOS>ATOM
      1 C1           1.2950    -0.1680    -0.6280 c5         1 HL4       0.008700
      2 C2           2.1480    -1.0750     0.2900 c          1 HL4       0.630100
      3 C4           2.8300     1.0960     0.6770 c5         1 HL4       0.155600
      4 C5           2.1010     1.1570    -0.6900 c5         1 HL4      -0.136400
      5 O6           2.1450    -2.2970     0.3330 o          1 HL4      -0.460000
      6 N7           0.0340     0.1660     0.0880 ns         1 HL4      -0.515900
      7 C8          -1.0460     0.6160    -0.6480 c          1 HL4       0.605100
      8 O9          -1.0110     0.7610    -1.8620 o          1 HL4      -0.577100
      9 C10         -2.2900     0.9540     0.1810 c3         1 HL4      -0.156400
     10 C11         -3.4010    -0.1070     0.0000 c3         1 HL4      -0.064400
     11 C13         -4.6670     0.2000     0.8230 c3         1 HL4      -0.093100
     12 OAP          3.1110    -0.3070     0.8890 os         1 HL4      -0.428100
     13 H1           1.1530    -0.6490    -1.6060 h1         1 HL4       0.118700
     14 H4           3.7620     1.6770     0.6980 h1         1 HL4       0.062700
     15 H4A          2.1810     1.4500     1.4900 h1         1 HL4       0.062700
     16 H5           2.8260     1.1380    -1.5110 hc         1 HL4       0.074700
     17 H5A          1.4880     2.0570    -0.8150 hc         1 HL4       0.074700
     18 HN7         -0.0960     0.0740     1.0910 hn         1 HL4       0.313500
     19 H10         -2.0290     1.0060     1.2450 hc         1 HL4       0.056200
     20 H10A        -2.6790     1.9240    -0.1530 hc         1 HL4       0.056200
     21 H11         -3.6720    -0.1760    -1.0610 hc         1 HL4       0.056700
     22 H11A        -3.0140    -1.0920     0.2930 hc         1 HL4       0.056700
     23 H13         -4.4350     0.2380     1.8940 hc         1 HL4       0.033367
     24 H13A        -5.0970     1.1650     0.5270 hc         1 HL4       0.033367
     25 H13B        -5.4240    -0.5760     0.6630 hc         1 HL4       0.033367
@<TRIPOS>BOND
     1     1     2 1   
     2     1     4 1   
     3     1     6 1   
     4     1    13 1   
     5     2     5 2   
     6     2    12 1   
     7     3     4 1   
     8     3    12 1   
     9     3    14 1   
    10     3    15 1   
    11     4    16 1   
    12     4    17 1   
    13     6     7 1   
    14     6    18 1   
    15     7     8 2   
    16     7     9 1   
    17     9    10 1   
    18     9    19 1   
    19     9    20 1   
    20    10    11 1   
    21    10    21 1   
    22    10    22 1   
    23    11    23 1   
    24    11    24 1   
    25    11    25 1   
@<TRIPOS>SUBSTRUCTURE
     1 HL4         1 TEMP              0 ****  ****    0 ROOT
