@<TRIPOS>MOLECULE
HL5
   22    21     1     0     0
SMALL
bcc


@<TRIPOS>ATOM
      1 N          132.4510   -33.4260    82.7500 n8         1 HL5      -0.894800
      2 CA         131.3260   -32.6240    83.2120 c3         1 HL5       0.020500
      3 C          129.9820   -33.1940    82.6820 c          1 HL5       0.928600
      4 OXT        128.9770   -32.4740    82.8390 o          1 HL5      -0.835800
      5 CB         131.5170   -31.1610    82.8030 c3         1 HL5      -0.047400
      6 CG         132.8290   -30.5130    83.2530 c3         1 HL5      -0.067700
      7 CD1        132.9180   -30.4650    84.7720 c3         1 HL5       0.135400
      8 CD2        132.9590   -29.1190    82.6430 c3         1 HL5      -0.077100
      9 O          130.0070   -34.3370    82.1840 o          1 HL5      -0.835800
     10 H2         133.1990   -33.4030    83.4310 hn         1 HL5       0.326800
     11 H1         132.1410   -34.3870    82.6850 hn         1 HL5       0.326800
     12 HA         131.2270   -32.6590    84.3100 h1         1 HL5      -0.007300
     13 HB2        131.4680   -31.0990    81.7110 hc         1 HL5       0.046700
     14 HB3        130.6800   -30.5690    83.1850 hc         1 HL5       0.046700
     15 HG1        133.6600   -31.1240    82.8820 hc         1 HL5       0.060700
     16 HD1        134.1830   -29.8920    86.1240 ho         1 HL5       0.384000
     17 HD12       132.0780   -29.8640    85.1530 h1         1 HL5       0.017700
     18 HD13       132.7920   -31.4760    85.1800 h1         1 HL5       0.017700
     19 HD23       133.9090   -28.6470    82.8950 hc         1 HL5       0.022700
     20 HD22       132.8950   -29.1670    81.5550 hc         1 HL5       0.022700
     21 HD21       132.1570   -28.4640    82.9920 hc         1 HL5       0.022700
     22 OD         134.1610   -29.9220    85.1640 oh         1 HL5      -0.612800
@<TRIPOS>BOND
     1     1     2 1   
     2     1    10 1   
     3     1    11 1   
     4     2     3 1   
     5     2     5 1   
     6     2    12 1   
     7     3     4 1   
     8     3     9 1   
     9     5     6 1   
    10     5    13 1   
    11     5    14 1   
    12     6     7 1   
    13     6     8 1   
    14     6    15 1   
    15     7    17 1   
    16     7    18 1   
    17     7    22 1   
    18     8    19 1   
    19     8    20 1   
    20     8    21 1   
    21    16    22 1   
@<TRIPOS>SUBSTRUCTURE
     1 HL5         1 TEMP              0 ****  ****    0 ROOT
