@<TRIPOS>MOLECULE
HL5
   22    21     1     0     0
SMALL
No Charge or Current Charge


@<TRIPOS>ATOM
      1 N          132.4700   -33.4840    82.4970 n8         1 HL5      -0.894800
      2 CA         131.3290   -32.6800    83.0750 c3         1 HL5       0.020500
      3 C          129.8510   -33.1840    82.7300 c          1 HL5       0.928600
      4 OXT        129.2500   -32.7050    81.7710 o          1 HL5      -0.835800
      5 CB         131.5110   -31.1640    82.7520 c3         1 HL5      -0.047400
      6 CG         132.8150   -30.4870    83.2760 c3         1 HL5      -0.067700
      7 CD1        132.9270   -30.5320    84.8270 c3         1 HL5       0.135400
      8 CD2        132.9150   -29.0370    82.7350 c3         1 HL5      -0.077100
      9 O          129.3510   -34.0510    83.4430 o          1 HL5      -0.835800
     10 H2         133.3550   -33.1340    82.8760 hn         1 HL5       0.326800
     11 H1         132.4070   -34.4500    82.8370 hn         1 HL5       0.326800
     12 HA         131.4200   -32.7900    84.1630 h1         1 HL5      -0.007300
     13 HB2        131.4590   -31.0360    81.6630 hc         1 HL5       0.046700
     14 HB3        130.6520   -30.6190    83.1630 hc         1 HL5       0.046700
     15 HG1        133.6700   -31.0380    82.8660 hc         1 HL5       0.060700
     16 HD1        134.1920   -30.0510    86.2420 ho         1 HL5       0.384000
     17 HD12       132.1020   -29.9560    85.2660 h1         1 HL5       0.017700
     18 HD13       132.8330   -31.5670    85.1750 h1         1 HL5       0.017700
     19 HD23       133.8710   -28.5750    83.0110 hc         1 HL5       0.022700
     20 HD22       132.8480   -29.0260    81.6400 hc         1 HL5       0.022700
     21 HD21       132.1050   -28.4150    83.1340 hc         1 HL5       0.022700
     22 OD         134.1860   -30.0050    85.2620 oh         1 HL5      -0.612800
@<TRIPOS>BOND
     1     1     2 1   
     2     1    10 1   
     3     1    11 1   
     4     2     3 1   
     5     2     5 1   
     6     2    12 1   
     7     3     4 1   
     8     3     9 1   
     9     5     6 1   
    10     5    13 1   
    11     5    14 1   
    12     6     7 1   
    13     6     8 1   
    14     6    15 1   
    15     7    17 1   
    16     7    18 1   
    17     7    22 1   
    18     8    19 1   
    19     8    20 1   
    20     8    21 1   
    21    16    22 1   
@<TRIPOS>SUBSTRUCTURE
     1 HL5         1 TEMP              0 ****  ****    0 ROOT
