@<TRIPOS>MOLECULE
HL6
   31    31     1     0     0
SMALL
No Charge or Current Charge


@<TRIPOS>ATOM
      1 N           -0.8620     0.2750    -0.2440 ns         1 HL6      -0.494900
      2 C1          -2.9450    -1.0490    -0.5150 c          1 HL6       0.631100
      3 O1          -2.4620    -2.0080    -1.1020 o          1 HL6      -0.471000
      4 C2          -4.4230     0.6510    -0.0320 c5         1 HL6       0.157600
      5 O2          -4.1840    -0.5480    -0.8060 os         1 HL6      -0.425100
      6 C3          -3.0230     1.2930     0.1260 c5         1 HL6      -0.131400
      7 O3          -0.1260     1.2840     1.6770 o          1 HL6      -0.590100
      8 C4          -2.1970     0.0000     0.3460 c5         1 HL6      -0.005300
      9 C5           0.0850     0.9210     0.5280 c          1 HL6       0.610100
     10 C6           1.4210     1.1780    -0.1790 c3         1 HL6      -0.152400
     11 C7           2.5320     0.2380     0.3450 c3         1 HL6      -0.067400
     12 C8           3.8930     0.4680    -0.3490 c3         1 HL6      -0.077400
     13 C9           5.0040    -0.4700     0.1730 c3         1 HL6      -0.074400
     14 C10          6.3610    -0.2410    -0.5200 c3         1 HL6      -0.089100
     15 HN          -0.5890     0.0020    -1.1820 hn         1 HL6       0.316500
     16 H2          -5.1430     1.3000    -0.5480 h1         1 HL6       0.067200
     17 H2A         -4.8440     0.3650     0.9420 h1         1 HL6       0.067200
     18 H3          -2.7430     1.8310    -0.7880 hc         1 HL6       0.069700
     19 H3A         -2.9630     1.9950     0.9660 hc         1 HL6       0.069700
     20 H4          -2.1890    -0.3420     1.3910 h1         1 HL6       0.115700
     21 H6           1.3110     1.0180    -1.2580 hc         1 HL6       0.056200
     22 H6A          1.7240     2.2140     0.0130 hc         1 HL6       0.056200
     23 H7           2.6500     0.3840     1.4270 hc         1 HL6       0.057700
     24 H7A          2.2220    -0.8050     0.1970 hc         1 HL6       0.057700
     25 H8           3.7750     0.3190    -1.4300 hc         1 HL6       0.035200
     26 H8A          4.2020     1.5100    -0.2000 hc         1 HL6       0.035200
     27 H9           5.1260    -0.3230     1.2530 hc         1 HL6       0.040700
     28 H9A          4.6990    -1.5130     0.0240 hc         1 HL6       0.040700
     29 H10          6.2800    -0.4150    -1.6000 hc         1 HL6       0.031700
     30 H10A         6.7100     0.7860    -0.3590 hc         1 HL6       0.031700
     31 H10B         7.1160    -0.9270    -0.1180 hc         1 HL6       0.031700
@<TRIPOS>BOND
     1     1     8 1   
     2     1     9 1   
     3     1    15 1   
     4     2     3 2   
     5     2     5 1   
     6     2     8 1   
     7     4     5 1   
     8     4     6 1   
     9     4    16 1   
    10     4    17 1   
    11     6     8 1   
    12     6    18 1   
    13     6    19 1   
    14     7     9 2   
    15     8    20 1   
    16     9    10 1   
    17    10    11 1   
    18    10    21 1   
    19    10    22 1   
    20    11    12 1   
    21    11    23 1   
    22    11    24 1   
    23    12    13 1   
    24    12    25 1   
    25    12    26 1   
    26    13    14 1   
    27    13    27 1   
    28    13    28 1   
    29    14    29 1   
    30    14    30 1   
    31    14    31 1   
@<TRIPOS>SUBSTRUCTURE
     1 HL6         1 TEMP              0 ****  ****    0 ROOT
