@<TRIPOS>MOLECULE
HL6
   31    31     1     0     0
SMALL
abcg2


@<TRIPOS>ATOM
      1 N           -0.9460     0.5510    -0.2340 ns         1 HL6      -0.494900
      2 C1          -2.9610    -0.8640    -0.2640 c          1 HL6       0.631100
      3 O1          -2.4620    -1.9230    -0.5200 o          1 HL6      -0.471000
      4 C2          -4.5840     0.7280    -0.0490 c5         1 HL6       0.157600
      5 O2          -4.2600    -0.6290    -0.4140 os         1 HL6      -0.425100
      6 C3          -3.2650     1.4820    -0.1180 c5         1 HL6      -0.131400
      7 O3           0.1200     0.0400     1.6890 o          1 HL6      -0.590100
      8 C4          -2.2750     0.3890     0.2630 c5         1 HL6      -0.005300
      9 C5           0.1640     0.3800     0.5170 c          1 HL6       0.610100
     10 C6           1.4590     0.6960    -0.1970 c3         1 HL6      -0.152400
     11 C7           2.6570    -0.0740     0.3410 c3         1 HL6      -0.067400
     12 C8           3.9540     0.3420    -0.3420 c3         1 HL6      -0.077400
     13 C9           5.1720    -0.4060     0.1870 c3         1 HL6      -0.074400
     14 C10          6.4690     0.0370    -0.4740 c3         1 HL6      -0.089100
     15 HN          -0.8390     0.7930    -1.2070 hn         1 HL6       0.316500
     16 H2          -5.3380     1.0930    -0.7430 h1         1 HL6       0.067200
     17 H2A         -5.0000     0.7260     0.9600 h1         1 HL6       0.067200
     18 H3          -3.0710     1.8360    -1.1330 hc         1 HL6       0.069700
     19 H3A         -3.2420     2.3360     0.5560 hc         1 HL6       0.069700
     20 H4          -2.2250     0.2920     1.3530 h1         1 HL6       0.115700
     21 H6           1.3510     0.5290    -1.2710 hc         1 HL6       0.056200
     22 H6A          1.6300     1.7720    -0.0780 hc         1 HL6       0.056200
     23 H7           2.7450     0.0890     1.4170 hc         1 HL6       0.057700
     24 H7A          2.4990    -1.1480     0.2020 hc         1 HL6       0.057700
     25 H8           3.8700     0.1800    -1.4220 hc         1 HL6       0.035200
     26 H8A          4.1020     1.4190    -0.2080 hc         1 HL6       0.035200
     27 H9           5.2430    -0.2580     1.2700 hc         1 HL6       0.040700
     28 H9A          5.0320    -1.4810     0.0370 hc         1 HL6       0.040700
     29 H10          6.4420    -0.1330    -1.5520 hc         1 HL6       0.031700
     30 H10A         6.6470     1.1030    -0.3150 hc         1 HL6       0.031700
     31 H10B         7.3280    -0.5050    -0.0760 hc         1 HL6       0.031700
@<TRIPOS>BOND
     1     1     8 1   
     2     1     9 1   
     3     1    15 1   
     4     2     3 2   
     5     2     5 1   
     6     2     8 1   
     7     4     5 1   
     8     4     6 1   
     9     4    16 1   
    10     4    17 1   
    11     6     8 1   
    12     6    18 1   
    13     6    19 1   
    14     7     9 2   
    15     8    20 1   
    16     9    10 1   
    17    10    11 1   
    18    10    21 1   
    19    10    22 1   
    20    11    12 1   
    21    11    23 1   
    22    11    24 1   
    23    12    13 1   
    24    12    25 1   
    25    12    26 1   
    26    13    14 1   
    27    13    27 1   
    28    13    28 1   
    29    14    29 1   
    30    14    30 1   
    31    14    31 1   
@<TRIPOS>SUBSTRUCTURE
     1 HL6         1 TEMP              0 ****  ****    0 ROOT
