@<TRIPOS>MOLECULE
HL7
   94   100     1     0     0
SMALL
abcg2


@<TRIPOS>ATOM
      1 O1           8.6510     0.6360    -1.9550 o          1 HL7      -0.547000
      2 C13          1.2490    -0.0570     2.7090 c6         1 HL7       0.168300
      3 N3          -3.5990    -1.8190     0.4640 nn         1 HL7      -0.820400
      4 C12          2.7430    -0.0230     2.4320 c6         1 HL7      -0.077400
      5 C11          3.0280     0.4740     1.0170 c6         1 HL7      -0.041700
      6 C6           7.6920     0.0990    -2.4780 c          1 HL7       0.639100
      7 C7           9.0540    -1.4260    -3.7920 c3         1 HL7       0.111300
      8 C10          3.9590     2.4990    -1.1030 c5         1 HL7      -0.077400
      9 C9           4.7900     3.1050    -2.2310 c5         1 HL7      -0.081400
     10 C8           6.2160     2.8140    -1.7780 c5         1 HL7      -0.100400
     11 N2           0.5310    -0.8810     1.7540 n3         1 HL7      -0.719600
     12 N1           7.7800    -0.8820    -3.3900 ns         1 HL7      -0.503900
     13 C5           6.1550     1.3950    -1.2160 c5         1 HL7       0.193300
     14 C4           4.6900     1.1870    -0.7610 c5         1 HL7      -0.072700
     15 C3           4.5420     0.6950     0.7020 c6         1 HL7       0.033300
     16 C23         -9.2380     3.4860    -0.9870 ca         1 HL7       0.320900
     17 C24        -10.0430     2.6570     0.9730 ca         1 HL7       0.320900
     18 C2           5.0690     1.8060     1.6360 c6         1 HL7       0.164800
     19 C1           6.5950     0.4410     2.8360 c6         1 HL7       0.206100
     20 N4          -9.7390     3.7070     0.2210 nb         1 HL7      -0.637000
     21 C14         -0.8680    -0.9720     2.1080 c3         1 HL7       0.179800
     22 S           -9.0580    -0.5280    -1.2890 sy         1 HL7       1.039000
     23 C16         -3.0960    -2.2130     1.7660 cy         1 HL7       0.215300
     24 C15         -1.6640    -1.9400     1.2540 cy         1 HL7      -0.098700
     25 C17         -4.8400    -1.5120     0.0670 ca         1 HL7       0.409000
     26 C18         -5.0690    -0.9020    -1.1840 ca         1 HL7      -0.223000
     27 C22         -9.0140     2.2170    -1.5030 ca         1 HL7      -0.073500
     28 C21         -9.3320     1.1360    -0.6980 ca         1 HL7      -0.211500
     29 O2          -9.0910    -0.4700    -2.7470 o          1 HL7      -0.531000
     30 C20         -7.4350    -0.9110    -0.7710 ca         1 HL7      -0.360500
     31 C19         -6.3490    -0.6090    -1.5940 ca         1 HL7       0.043000
     32 O3          -9.9960    -1.3900    -0.5760 o          1 HL7      -0.531000
     33 C25         -9.8620     1.3440     0.5640 ca         1 HL7      -0.073500
     34 C26         -7.2260    -1.5100     0.4710 ca         1 HL7       0.043000
     35 C27         -5.9490    -1.8070     0.8880 ca         1 HL7      -0.223000
     36 C28         -2.3050    -1.4140    -0.0530 cy         1 HL7       0.215300
     37 C29          0.7600    -0.4140     0.4010 c6         1 HL7       0.168300
     38 C30          2.2430    -0.4200     0.0570 c6         1 HL7      -0.077400
     39 N            5.4750     1.3370     2.9410 n3         1 HL7      -0.713600
     40 C            5.7640     2.4370     3.8310 c3         1 HL7       0.152100
     41 C31          5.3680    -0.5740     0.8740 ca         1 HL7      -0.058300
     42 C36          5.2320    -1.6460    -0.0150 ca         1 HL7      -0.100000
     43 C35          5.9870    -2.7990     0.1080 ca         1 HL7      -0.116000
     44 C34          6.9180    -2.9100     1.1320 ca         1 HL7      -0.103000
     45 C33          7.0790    -1.8530     2.0090 ca         1 HL7      -0.108000
     46 C32          6.3200    -0.6900     1.8890 ca         1 HL7      -0.067300
     47 O            6.4190     0.4170    -2.2310 os         1 HL7      -0.466100
     48 H1           1.0720    -0.4560     3.7120 h1         1 HL7       0.026950
     49 H2           0.8610     0.9790     2.7130 h1         1 HL7       0.026950
     50 H3           3.2270     0.6100     3.1740 hc         1 HL7       0.058450
     51 H4           3.1560    -1.0290     2.5610 hc         1 HL7       0.058450
     52 H5           2.5790     1.4740     0.9320 hc         1 HL7       0.036700
     53 H6           9.6910    -0.6650    -4.2430 h1         1 HL7       0.040367
     54 H7           9.5950    -1.8760    -2.9580 h1         1 HL7       0.040367
     55 H8           8.8750    -2.1980    -4.5350 h1         1 HL7       0.040367
     56 H9           3.9460     3.1880    -0.2550 hc         1 HL7       0.044700
     57 H10          2.9190     2.3250    -1.3850 hc         1 HL7       0.044700
     58 H11          4.5760     2.5990    -3.1760 hc         1 HL7       0.048700
     59 H12          4.5960     4.1680    -2.3800 hc         1 HL7       0.048700
     60 H13          6.9730     2.9350    -2.5540 hc         1 HL7       0.059200
     61 H14          6.4820     3.4940    -0.9630 hc         1 HL7       0.059200
     62 H16          6.9390    -1.3410    -3.6980 hn         1 HL7       0.325500
     63 H17          6.8700     1.2510    -0.4040 h1         1 HL7       0.078700
     64 H18          4.2790     0.4230    -1.4210 hc         1 HL7       0.070700
     65 H20        -10.4570     2.8620     1.9530 h4         1 HL7       0.022100
     66 H21          5.9050     2.3500     1.1570 h1         1 HL7       0.034700
     67 H22          4.2830     2.5510     1.7790 h1         1 HL7       0.034700
     68 H23          7.5070     0.9700     2.4970 h1         1 HL7       0.042700
     69 H24          6.8290     0.0430     3.8270 h1         1 HL7       0.042700
     70 H25         -0.9200    -1.3210     3.1450 h1         1 HL7       0.035200
     71 H26         -1.3710     0.0130     2.0940 h1         1 HL7       0.035200
     72 H27         -3.4190    -1.5530     2.5790 h1         1 HL7       0.057200
     73 H28         -3.3170    -3.2450     2.0460 h1         1 HL7       0.057200
     74 H29         -1.0980    -2.8600     1.1000 hc         1 HL7       0.089700
     75 H30         -4.2360    -0.6700    -1.8350 ha         1 HL7       0.118000
     76 H31         -8.6120     2.0980    -2.4990 ha         1 HL7       0.143000
     77 H32         -6.4990    -0.1500    -2.5630 ha         1 HL7       0.130500
     78 H33        -10.1370     0.5280     1.2170 ha         1 HL7       0.143000
     79 H34         -8.0590    -1.7540     1.1170 ha         1 HL7       0.130500
     80 H35         -5.8000    -2.2790     1.8510 ha         1 HL7       0.118000
     81 H36         -2.0080    -1.9200    -0.9750 h1         1 HL7       0.057200
     82 H37         -2.2120    -0.3330    -0.2010 h1         1 HL7       0.057200
     83 H38          0.2430    -1.0710    -0.3020 h1         1 HL7       0.026950
     84 H39          0.3520     0.6020     0.2450 h1         1 HL7       0.026950
     85 H40          2.3470    -0.0960    -0.9820 hc         1 HL7       0.058450
     86 H41          2.6000    -1.4510     0.1120 hc         1 HL7       0.058450
     87 H43          4.8830     3.0690     3.9440 h1         1 HL7       0.032700
     88 H44          6.0340     2.0580     4.8180 h1         1 HL7       0.032700
     89 H45          6.5930     3.0720     3.4780 h1         1 HL7       0.032700
     90 H46          4.5330    -1.5840    -0.8370 ha         1 HL7       0.111000
     91 H47          5.8520    -3.6070    -0.6000 ha         1 HL7       0.110000
     92 H48          7.5150    -3.8060     1.2400 ha         1 HL7       0.113000
     93 H49          7.8120    -1.9230     2.8050 ha         1 HL7       0.111000
     94 H19         -9.0040     4.3580    -1.5860 h4         1 HL7       0.022100
@<TRIPOS>BOND
     1     1     6 2   
     2     2     4 1   
     3     2    11 1   
     4     2    48 1   
     5     2    49 1   
     6     3    23 1   
     7     3    25 1   
     8     3    36 1   
     9     4     5 1   
    10     4    50 1   
    11     4    51 1   
    12     5    15 1   
    13     5    38 1   
    14     5    52 1   
    15     6    12 1   
    16     6    47 1   
    17     7    12 1   
    18     7    53 1   
    19     7    54 1   
    20     7    55 1   
    21     8     9 1   
    22     8    14 1   
    23     8    56 1   
    24     8    57 1   
    25     9    10 1   
    26     9    58 1   
    27     9    59 1   
    28    10    13 1   
    29    10    60 1   
    30    10    61 1   
    31    11    21 1   
    32    11    37 1   
    33    12    62 1   
    34    13    14 1   
    35    13    47 1   
    36    13    63 1   
    37    14    15 1   
    38    14    64 1   
    39    15    18 1   
    40    15    41 1   
    41    16    20 ar  
    42    16    27 ar  
    43    16    94 1   
    44    17    20 ar  
    45    17    33 ar  
    46    17    65 1   
    47    18    39 1   
    48    18    66 1   
    49    18    67 1   
    50    19    39 1   
    51    19    46 1   
    52    19    68 1   
    53    19    69 1   
    54    21    24 1   
    55    21    70 1   
    56    21    71 1   
    57    22    28 1   
    58    22    29 2   
    59    22    30 1   
    60    22    32 2   
    61    23    24 1   
    62    23    72 1   
    63    23    73 1   
    64    24    36 1   
    65    24    74 1   
    66    25    26 ar  
    67    25    35 ar  
    68    26    31 ar  
    69    26    75 1   
    70    27    28 ar  
    71    27    76 1   
    72    28    33 ar  
    73    30    31 ar  
    74    30    34 ar  
    75    31    77 1   
    76    33    78 1   
    77    34    35 ar  
    78    34    79 1   
    79    35    80 1   
    80    36    81 1   
    81    36    82 1   
    82    37    38 1   
    83    37    83 1   
    84    37    84 1   
    85    38    85 1   
    86    38    86 1   
    87    39    40 1   
    88    40    87 1   
    89    40    88 1   
    90    40    89 1   
    91    41    42 ar  
    92    41    46 ar  
    93    42    43 ar  
    94    42    90 1   
    95    43    44 ar  
    96    43    91 1   
    97    44    45 ar  
    98    44    92 1   
    99    45    46 ar  
   100    45    93 1   
@<TRIPOS>SUBSTRUCTURE
     1 HL7         1 TEMP              0 ****  ****    0 ROOT
