@<TRIPOS>MOLECULE
HL7
   94   100     1     0     0
SMALL
No Charge or Current Charge


@<TRIPOS>ATOM
      1 O1           8.8060     0.4920    -2.1320 o          1 HL7      -0.547000
      2 C13          1.5140     0.1680     3.0570 c6         1 HL7       0.168300
      3 N3          -3.7280    -1.2040     0.8270 nn         1 HL7      -0.820400
      4 C12          2.9940     0.0660     2.6140 c6         1 HL7      -0.077400
      5 C11          3.2530     0.7900     1.2540 c6         1 HL7      -0.041700
      6 C6           7.7540     0.0130    -2.5290 c          1 HL7       0.639100
      7 C7           8.7960    -1.6910    -4.0260 c3         1 HL7       0.111300
      8 C10          4.5570     2.9820    -0.7250 c5         1 HL7      -0.077400
      9 C9           5.1160     3.3230    -2.1250 c5         1 HL7      -0.081400
     10 C8           6.5770     2.8290    -1.9730 c5         1 HL7      -0.100400
     11 N2           0.5780    -0.3620     2.0330 n3         1 HL7      -0.719600
     12 N1           7.6530    -1.0140    -3.4190 ns         1 HL7      -0.503900
     13 C5           6.4340     1.4740    -1.2010 c5         1 HL7       0.193300
     14 C4           4.9730     1.4810    -0.6120 c5         1 HL7      -0.072700
     15 C3           4.7930     0.7850     0.8020 c6         1 HL7       0.033300
     16 C23        -10.0940     2.7550    -1.6910 ca         1 HL7       0.320900
     17 C24        -10.9840     1.9280     0.2850 ca         1 HL7       0.320900
     18 C2           5.6030     1.6610     1.8460 c6         1 HL7       0.164800
     19 C1           6.9400    -0.1750     2.7070 c6         1 HL7       0.206100
     20 N4         -10.7750     2.9830    -0.5410 nb         1 HL7      -0.637000
     21 C14         -0.8250    -0.3550     2.5180 c3         1 HL7       0.179800
     22 S           -9.2090    -1.2590    -1.6100 sy         1 HL7       1.039000
     23 C16         -3.2840    -1.3060     2.2420 cy         1 HL7       0.215300
     24 C15         -1.8280    -1.1650     1.6830 cy         1 HL7      -0.098700
     25 C17         -4.9880    -1.2210     0.2660 ca         1 HL7       0.409000
     26 C18         -5.1820    -0.7870    -1.0550 ca         1 HL7      -0.223000
     27 C22         -9.6060     1.4870    -2.0580 ca         1 HL7      -0.073500
     28 C21         -9.8280     0.3870    -1.2000 ca         1 HL7      -0.211500
     29 O2          -9.0520    -1.3310    -3.0700 o          1 HL7      -0.531000
     30 C20         -7.5610    -1.2580    -0.8830 ca         1 HL7      -0.360500
     31 C19         -6.4610    -0.8000    -1.6330 ca         1 HL7       0.043000
     32 O3         -10.0200    -2.2430    -0.8800 o          1 HL7      -0.531000
     33 C25        -10.5320     0.6260     0.0000 ca         1 HL7      -0.073500
     34 C26         -7.3750    -1.6940     0.4420 ca         1 HL7       0.043000
     35 C27         -6.0900    -1.6750     1.0080 ca         1 HL7      -0.223000
     36 C28         -2.4780    -0.5120     0.4160 cy         1 HL7       0.215300
     37 C29          0.7680     0.3440     0.7380 c6         1 HL7       0.168300
     38 C30          2.2220     0.2140     0.2290 c6         1 HL7      -0.077400
     39 N            6.0410     0.9380     3.0630 n3         1 HL7      -0.713600
     40 C            6.6250     1.8330     4.0840 c3         1 HL7       0.152100
     41 C31          5.3800    -0.6650     0.7190 ca         1 HL7      -0.058300
     42 C36          4.9690    -1.5680    -0.2930 ca         1 HL7      -0.100000
     43 C35          5.4990    -2.8650    -0.3750 ca         1 HL7      -0.116000
     44 C34          6.4630    -3.2890     0.5470 ca         1 HL7      -0.103000
     45 C33          6.9030    -2.4070     1.5420 ca         1 HL7      -0.108000
     46 C32          6.3760    -1.1030     1.6330 ca         1 HL7      -0.067300
     47 O            6.4940     0.3930    -2.1680 os         1 HL7      -0.466100
     48 H1           1.3960    -0.3860     4.0000 h1         1 HL7       0.026950
     49 H2           1.2800     1.2210     3.2730 h1         1 HL7       0.026950
     50 H3           3.5950     0.5010     3.4170 hc         1 HL7       0.058450
     51 H4           3.2810    -0.9910     2.5420 hc         1 HL7       0.058450
     52 H5           2.9700     1.8420     1.4030 hc         1 HL7       0.036700
     53 H6           9.5480    -0.9450    -4.3100 h1         1 HL7       0.040367
     54 H7           9.2310    -2.3950    -3.3060 h1         1 HL7       0.040367
     55 H8           8.4680    -2.2370    -4.9200 h1         1 HL7       0.040367
     56 H9           5.0090     3.6170     0.0470 hc         1 HL7       0.044700
     57 H10          3.4720     3.1230    -0.6710 hc         1 HL7       0.044700
     58 H11          4.5830     2.7890    -2.9220 hc         1 HL7       0.048700
     59 H12          5.0580     4.3940    -2.3510 hc         1 HL7       0.048700
     60 H13          7.0800     2.7260    -2.9410 hc         1 HL7       0.059200
     61 H14          7.1690     3.5400    -1.3840 hc         1 HL7       0.059200
     62 H16          6.7150    -1.3120    -3.6520 hn         1 HL7       0.325500
     63 H17          7.2070     1.3400    -0.4330 h1         1 HL7       0.078700
     64 H18          4.3440     0.9170    -1.3050 hc         1 HL7       0.070700
     65 H20        -11.5300     2.1350     1.2040 h4         1 HL7       0.022100
     66 H21          6.4950     2.0900     1.3710 h1         1 HL7       0.034700
     67 H22          4.9870     2.5250     2.1360 h1         1 HL7       0.034700
     68 H23          7.9010     0.2180     2.3430 h1         1 HL7       0.042700
     69 H24          7.1610    -0.7710     3.6050 h1         1 HL7       0.042700
     70 H25         -0.8550    -0.7880     3.5280 h1         1 HL7       0.035200
     71 H26         -1.1980     0.6750     2.6030 h1         1 HL7       0.035200
     72 H27         -3.5990    -0.4710     2.8810 h1         1 HL7       0.057200
     73 H28         -3.4730    -2.2630     2.7420 h1         1 HL7       0.057200
     74 H29         -1.3780    -2.1390     1.4670 hc         1 HL7       0.089700
     75 H30         -4.3390    -0.4360    -1.6410 ha         1 HL7       0.118000
     76 H31         -9.0640     1.3730    -2.9940 ha         1 HL7       0.143000
     77 H32         -6.5890    -0.4540    -2.6570 ha         1 HL7       0.130500
     78 H33        -10.7300    -0.1750     0.7080 ha         1 HL7       0.143000
     79 H34         -8.2160    -2.0450     1.0380 ha         1 HL7       0.130500
     80 H35         -5.9550    -2.0160     2.0290 ha         1 HL7       0.118000
     81 H36         -2.0330    -0.8430    -0.5300 h1         1 HL7       0.057200
     82 H37         -2.5270     0.5840     0.4540 h1         1 HL7       0.057200
     83 H38          0.1090    -0.0770    -0.0320 h1         1 HL7       0.026950
     84 H39          0.5120     1.4100     0.8400 h1         1 HL7       0.026950
     85 H40          2.2800     0.7290    -0.7360 hc         1 HL7       0.058450
     86 H41          2.4110    -0.8500     0.0450 hc         1 HL7       0.058450
     87 H43          5.9070     2.6140     4.3700 h1         1 HL7       0.032700
     88 H44          6.8890     1.2690     4.9880 h1         1 HL7       0.032700
     89 H45          7.5330     2.3220     3.7050 h1         1 HL7       0.032700
     90 H46          4.2480    -1.2710    -1.0470 ha         1 HL7       0.111000
     91 H47          5.1670    -3.5390    -1.1610 ha         1 HL7       0.110000
     92 H48          6.8780    -4.2920     0.4830 ha         1 HL7       0.113000
     93 H49          7.6670    -2.7340     2.2450 ha         1 HL7       0.111000
     94 H19         -9.9360     3.6160    -2.3380 h4         1 HL7       0.022100
@<TRIPOS>BOND
     1     1     6 2   
     2     2     4 1   
     3     2    11 1   
     4     2    48 1   
     5     2    49 1   
     6     3    23 1   
     7     3    25 1   
     8     3    36 1   
     9     4     5 1   
    10     4    50 1   
    11     4    51 1   
    12     5    15 1   
    13     5    38 1   
    14     5    52 1   
    15     6    12 1   
    16     6    47 1   
    17     7    12 1   
    18     7    53 1   
    19     7    54 1   
    20     7    55 1   
    21     8     9 1   
    22     8    14 1   
    23     8    56 1   
    24     8    57 1   
    25     9    10 1   
    26     9    58 1   
    27     9    59 1   
    28    10    13 1   
    29    10    60 1   
    30    10    61 1   
    31    11    21 1   
    32    11    37 1   
    33    12    62 1   
    34    13    14 1   
    35    13    47 1   
    36    13    63 1   
    37    14    15 1   
    38    14    64 1   
    39    15    18 1   
    40    15    41 1   
    41    16    20 ar  
    42    16    27 ar  
    43    16    94 1   
    44    17    20 ar  
    45    17    33 ar  
    46    17    65 1   
    47    18    39 1   
    48    18    66 1   
    49    18    67 1   
    50    19    39 1   
    51    19    46 1   
    52    19    68 1   
    53    19    69 1   
    54    21    24 1   
    55    21    70 1   
    56    21    71 1   
    57    22    28 1   
    58    22    29 2   
    59    22    30 1   
    60    22    32 2   
    61    23    24 1   
    62    23    72 1   
    63    23    73 1   
    64    24    36 1   
    65    24    74 1   
    66    25    26 ar  
    67    25    35 ar  
    68    26    31 ar  
    69    26    75 1   
    70    27    28 ar  
    71    27    76 1   
    72    28    33 ar  
    73    30    31 ar  
    74    30    34 ar  
    75    31    77 1   
    76    33    78 1   
    77    34    35 ar  
    78    34    79 1   
    79    35    80 1   
    80    36    81 1   
    81    36    82 1   
    82    37    38 1   
    83    37    83 1   
    84    37    84 1   
    85    38    85 1   
    86    38    86 1   
    87    39    40 1   
    88    40    87 1   
    89    40    88 1   
    90    40    89 1   
    91    41    42 ar  
    92    41    46 ar  
    93    42    43 ar  
    94    42    90 1   
    95    43    44 ar  
    96    43    91 1   
    97    44    45 ar  
    98    44    92 1   
    99    45    46 ar  
   100    45    93 1   
@<TRIPOS>SUBSTRUCTURE
     1 HL7         1 TEMP              0 ****  ****    0 ROOT
