@<TRIPOS>MOLECULE
HL8
   43    46     1     0     0
SMALL
abcg2


@<TRIPOS>ATOM
      1 C1           2.1140     1.3510     1.8930 ca         1 HL8      -0.171000
      2 C2           1.0410     1.0940     2.7220 ca         1 HL8      -0.059000
      3 C3          -0.1870     0.7590     2.1780 ca         1 HL8       0.058000
      4 C11         -3.6390     0.5520    -0.4280 cc         1 HL8       0.104300
      5 C12         -2.6120     1.3110     0.0650 cd         1 HL8      -0.078300
      6 C13         -1.2640    -2.0320    -0.1410 cc         1 HL8       0.091000
      7 C14         -4.9910     0.9950    -0.8440 c3         1 HL8       0.299700
      8 C16         -1.6250    -3.3290    -0.3260 cd         1 HL8      -0.127000
      9 C17         -0.4310    -4.0970    -0.2290 cd         1 HL8      -0.188000
     10 C18          0.5520    -3.1960     0.0080 cc         1 HL8       0.219000
     11 C23          3.5170     0.8400    -1.5180 cy         1 HL8       0.203300
     12 C24          4.9750     1.1460    -1.1520 cy         1 HL8      -0.208700
     13 C25          4.4730     1.5730     0.2320 cy         1 HL8       0.203300
     14 C26          5.9950     0.0150    -1.2450 c          1 HL8       0.726000
     15 C4          -0.3350     0.7290     0.8000 ca         1 HL8       0.016800
     16 C5           0.7400     1.0210    -0.0290 ca         1 HL8       0.060000
     17 C6           2.0130     1.2960     0.4930 ca         1 HL8       0.359000
     18 N7          -1.5900     0.4120     0.2370 na         1 HL8      -0.046300
     19 CL8          0.4540     1.0540    -1.7290 cl         1 HL8      -0.173000
     20 C9          -2.0370    -0.8160    -0.1620 cd         1 HL8       0.412500
     21 N10         -3.2730    -0.7510    -0.5710 nc         1 HL8      -0.626000
     22 F15         -5.4550     1.9890    -0.0730 f          1 HL8      -0.116000
     23 O19          0.0710    -1.9500     0.0650 os         1 HL8      -0.209000
     24 CL4         -1.5290     0.3790     3.1940 cl         1 HL8      -0.199000
     25 CL3          2.2190    -3.3640     0.2260 cl         1 HL8      -0.073000
     26 N22          3.1040     1.5410    -0.2880 nn         1 HL8      -0.789400
     27 O27          6.8580    -0.0330    -0.3480 o          1 HL8      -0.721500
     28 O28          5.8880    -0.7390    -2.2320 o          1 HL8      -0.721500
     29 F29         -5.0140     1.4540    -2.1070 f          1 HL8      -0.116000
     30 F30         -5.8730    -0.0040    -0.7830 f          1 HL8      -0.116000
     31 H1           3.0640     1.5980     2.3470 ha         1 HL8       0.132000
     32 H2           1.1690     1.1380     3.7950 ha         1 HL8       0.125000
     33 H3          -2.6220    -3.6960    -0.5090 ha         1 HL8       0.154000
     34 H4          -0.3210    -5.1640    -0.3200 ha         1 HL8       0.149000
     35 H5           3.1420     1.2740    -2.4430 h1         1 HL8       0.054700
     36 H6           3.2800    -0.2280    -1.5030 h1         1 HL8       0.054700
     37 H7           5.3490     2.0030    -1.7200 hc         1 HL8       0.053700
     38 H8           4.6630     0.8170     1.0020 h1         1 HL8       0.054700
     39 H9           4.7870     2.5470     0.6130 h1         1 HL8       0.054700
     40 H11         -2.3910     2.9130     1.4610 hc         1 HL8       0.061700
     41 H12         -1.5370     3.1460    -0.0630 hc         1 HL8       0.061700
     42 H13         -3.2820     3.3330     0.0040 hc         1 HL8       0.061700
     43 C31         -2.4490     2.7500     0.3840 c3         1 HL8      -0.032800
@<TRIPOS>BOND
     1     1     2 ar  
     2     1    17 ar  
     3     1    31 1   
     4     2     3 ar  
     5     2    32 1   
     6     3    15 ar  
     7     3    24 1   
     8     4     5 2   
     9     4     7 1   
    10     4    21 1   
    11     5    18 1   
    12     5    43 1   
    13     6     8 2   
    14     6    20 1   
    15     6    23 1   
    16     7    22 1   
    17     7    29 1   
    18     7    30 1   
    19     8     9 1   
    20     8    33 1   
    21     9    10 2   
    22     9    34 1   
    23    10    23 1   
    24    10    25 1   
    25    11    12 1   
    26    11    26 1   
    27    11    35 1   
    28    11    36 1   
    29    12    13 1   
    30    12    14 1   
    31    12    37 1   
    32    13    26 1   
    33    13    38 1   
    34    13    39 1   
    35    14    27 1   
    36    14    28 1   
    37    15    16 ar  
    38    15    18 1   
    39    16    17 ar  
    40    16    19 1   
    41    17    26 1   
    42    18    20 1   
    43    20    21 2   
    44    40    43 1   
    45    41    43 1   
    46    42    43 1   
@<TRIPOS>SUBSTRUCTURE
     1 HL8         1 TEMP              0 ****  ****    0 ROOT
