@<TRIPOS>MOLECULE
HL8
   43    46     1     0     0
SMALL
No Charge or Current Charge


@<TRIPOS>ATOM
      1 C1           1.9740     1.1100     1.8730 ca         1 HL8      -0.171000
      2 C2           0.7760     0.8560     2.5530 ca         1 HL8      -0.059000
      3 C3          -0.3980     0.5820     1.8420 ca         1 HL8       0.058000
      4 C11         -3.6990     0.5700    -0.2690 cc         1 HL8       0.104300
      5 C12         -2.5110     1.2730    -0.2930 cd         1 HL8      -0.078300
      6 C13         -1.4140    -2.1230    -0.1210 cc         1 HL8       0.091000
      7 C14         -5.1040     1.1620    -0.2520 c3         1 HL8       0.299700
      8 C16         -1.8580    -3.4160     0.0100 cd         1 HL8      -0.127000
      9 C17         -0.7100    -4.2400     0.0030 cd         1 HL8      -0.188000
     10 C18          0.3610    -3.4030    -0.1390 cc         1 HL8       0.219000
     11 C23          3.8440     1.0070    -1.4670 cy         1 HL8       0.203300
     12 C24          5.1100     1.7870    -0.9610 cy         1 HL8      -0.208700
     13 C25          4.6420     1.3990     0.4850 cy         1 HL8       0.203300
     14 C26          6.1660     0.6300    -1.1620 c          1 HL8       0.726000
     15 C4          -0.3780     0.5700     0.4250 ca         1 HL8       0.016800
     16 C5           0.8350     0.8380    -0.2610 ca         1 HL8       0.060000
     17 C6           2.0360     1.1000     0.4650 ca         1 HL8       0.359000
     18 N7          -1.5340     0.2930    -0.3300 na         1 HL8      -0.046300
     19 Cl8          0.7910     0.8370    -2.0390 cl         1 HL8      -0.173000
     20 C9          -2.1590    -0.9440    -0.1860 cd         1 HL8       0.412500
     21 N10         -3.4790    -0.7930    -0.2060 nc         1 HL8      -0.626000
     22 F15         -5.2620     2.0320     0.7720 f          1 HL8      -0.116000
     23 O19         -0.0370    -2.0940    -0.2280 os         1 HL8      -0.209000
     24 Cl4         -1.8640     0.2710     2.7760 cl         1 HL8      -0.199000
     25 Cl3          2.0610    -3.7380    -0.2230 cl         1 HL8      -0.073000
     26 N22          3.2780     1.3530    -0.1260 nn         1 HL8      -0.789400
     27 O27          7.0450     0.4070    -0.3390 o          1 HL8      -0.721500
     28 O28          6.2750     0.0310    -2.2250 o          1 HL8      -0.721500
     29 F29         -5.3660     1.8410    -1.3930 f          1 HL8      -0.116000
     30 F30         -6.0700     0.2210    -0.1230 f          1 HL8      -0.116000
     31 H1           2.8650     1.3170     2.4570 ha         1 HL8       0.132000
     32 H2           0.7580     0.8690     3.6400 ha         1 HL8       0.125000
     33 H3          -2.8920    -3.7330     0.1020 ha         1 HL8       0.154000
     34 H4          -0.6750    -5.3210     0.0910 ha         1 HL8       0.149000
     35 H5           3.3830     1.4910    -2.3350 h1         1 HL8       0.054700
     36 H6           3.9270    -0.0750    -1.6340 h1         1 HL8       0.054700
     37 H7           5.3290     2.8160    -1.2570 hc         1 HL8       0.053700
     38 H8           4.9620     0.4310     0.8950 h1         1 HL8       0.054700
     39 H9           4.8090     2.1940     1.2220 h1         1 HL8       0.054700
     40 H11         -2.1480     3.1290     0.7520 hc         1 HL8       0.061700
     41 H12         -1.3340     3.0160    -0.8180 hc         1 HL8       0.061700
     42 H13         -3.0730     3.3160    -0.7460 hc         1 HL8       0.061700
     43 C31         -2.2530     2.7630    -0.2760 c3         1 HL8      -0.032800
@<TRIPOS>BOND
     1     1     2 ar  
     2     1    17 ar  
     3     1    31 1   
     4     2     3 ar  
     5     2    32 1   
     6     3    15 ar  
     7     3    24 1   
     8     4     5 2   
     9     4     7 1   
    10     4    21 1   
    11     5    18 1   
    12     5    43 1   
    13     6     8 2   
    14     6    20 1   
    15     6    23 1   
    16     7    22 1   
    17     7    29 1   
    18     7    30 1   
    19     8     9 1   
    20     8    33 1   
    21     9    10 2   
    22     9    34 1   
    23    10    23 1   
    24    10    25 1   
    25    11    12 1   
    26    11    26 1   
    27    11    35 1   
    28    11    36 1   
    29    12    13 1   
    30    12    14 1   
    31    12    37 1   
    32    13    26 1   
    33    13    38 1   
    34    13    39 1   
    35    14    27 1   
    36    14    28 1   
    37    15    16 ar  
    38    15    18 1   
    39    16    17 ar  
    40    16    19 1   
    41    17    26 1   
    42    18    20 1   
    43    20    21 2   
    44    40    43 1   
    45    41    43 1   
    46    42    43 1   
@<TRIPOS>SUBSTRUCTURE
     1 HL8         1 TEMP              0 ****  ****    0 ROOT
