@<TRIPOS>MOLECULE
HL9
   57    60     1     0     0
SMALL
abcg2


@<TRIPOS>ATOM
      1 C01         18.0540    28.0410   -10.4400 c5         1 HL9       0.074300
      2 C05         16.1680    28.4310    -7.5300 c          1 HL9       0.612000
      3 C08         17.2370    28.9770    -9.5420 c5         1 HL9       0.096700
      4 C10         18.1310    29.4180    -8.3450 c5         1 HL9       0.102700
      5 C12         19.4440    28.6250    -8.3870 c5         1 HL9       0.029600
      6 C14         17.2300    27.1580   -11.3590 c3         1 HL9      -0.058400
      7 C15         18.0830    26.2730   -12.2620 c3         1 HL9      -0.081400
      8 C16         17.2500    25.5170   -13.2900 c3         1 HL9      -0.065400
      9 C17         18.0530    24.4730   -14.0670 c3         1 HL9      -0.156400
     10 C18         21.6880    25.2080   -14.8890 c6         1 HL9       0.115700
     11 C19         22.7510    25.1580   -13.8010 c6         1 HL9      -0.105900
     12 C20         22.1790    24.4450   -16.1140 c6         1 HL9      -0.105900
     13 C21         23.5330    24.9590   -16.5850 c6         1 HL9       0.222300
     14 C22         24.0850    25.6570   -14.3300 c6         1 HL9       0.222300
     15 C23         19.2250    25.1000   -14.7900 c          1 HL9       0.600100
     16 C24         25.8200    24.6240   -15.7400 ca         1 HL9       0.376000
     17 C25         26.3370    24.4010   -17.0310 ca         1 HL9      -0.246500
     18 C26         26.7580    24.4910   -14.6960 ca         1 HL9      -0.246500
     19 C27         28.0620    24.1460   -14.9810 ca         1 HL9       0.365900
     20 C28         27.6670    24.0600   -17.1910 ca         1 HL9       0.365900
     21 N02         17.3030    29.1030    -7.2110 ns         1 HL9      -0.522900
     22 N06         16.1370    28.3160    -8.8860 ns         1 HL9      -0.510900
     23 N09         20.4370    24.6910   -14.3790 ns         1 HL9      -0.507900
     24 N11         24.5070    24.9160   -15.5090 nh         1 HL9      -0.822400
     25 N13         28.5440    23.9240   -16.2020 nb         1 HL9      -0.695000
     26 O03         15.3260    28.0160    -6.7490 o          1 HL9      -0.575000
     27 O07         19.0680    25.9420   -15.6650 o          1 HL9      -0.608100
     28 S04         19.0900    27.0890    -9.2800 ss         1 HL9      -0.413000
     29 H011        18.7220    28.6630   -11.0460 h1         1 HL9       0.070700
     30 H081        16.8910    29.8330   -10.1290 h1         1 HL9       0.064700
     31 H101        18.3560    30.4860    -8.3790 h1         1 HL9       0.071700
     32 H122        19.8250    28.4050    -7.3900 h1         1 HL9       0.077700
     33 H121        20.2070    29.1910    -8.9240 h1         1 HL9       0.077700
     34 H142        16.6050    27.8100   -11.9790 hc         1 HL9       0.053700
     35 H141        16.5520    26.5350   -10.7710 hc         1 HL9       0.053700
     36 H151        18.6460    25.5600   -11.6510 hc         1 HL9       0.048200
     37 H152        18.8270    26.8950   -12.7700 hc         1 HL9       0.048200
     38 H162        16.7940    26.2240   -13.9870 hc         1 HL9       0.051700
     39 H161        16.4240    25.0050   -12.7890 hc         1 HL9       0.051700
     40 H171        17.4120    23.9950   -14.8110 hc         1 HL9       0.059700
     41 H172        18.3850    23.6860   -13.3860 hc         1 HL9       0.059700
     42 H181        21.5250    26.2530   -15.1680 h1         1 HL9       0.074700
     43 H192        22.4530    25.7750   -12.9510 hc         1 HL9       0.057700
     44 H191        22.8670    24.1320   -13.4370 hc         1 HL9       0.057700
     45 H202        21.4610    24.5370   -16.9310 hc         1 HL9       0.057700
     46 H201        22.2640    23.3820   -15.8700 hc         1 HL9       0.057700
     47 H212        23.8620    24.3330   -17.4110 h1         1 HL9       0.047450
     48 H211        23.4340    25.9820   -16.9740 h1         1 HL9       0.047450
     49 H221        24.8270    25.5810   -13.5420 h1         1 HL9       0.047450
     50 H222        24.0030    26.7220   -14.5830 h1         1 HL9       0.047450
     51 H251        25.7320    24.5050   -17.9190 ha         1 HL9       0.118500
     52 H261        26.4850    24.6230   -13.6590 ha         1 HL9       0.118500
     53 H271        28.7610    24.0370   -14.1580 h4         1 HL9       0.012100
     54 H281        28.0420    23.8950   -18.1960 h4         1 HL9       0.012100
     55 H021        17.6390    29.1520    -6.2630 hn         1 HL9       0.341500
     56 H061        15.2680    28.1370    -9.3590 hn         1 HL9       0.336500
     57 H091        20.4840    23.9760   -13.6700 hn         1 HL9       0.312500
@<TRIPOS>BOND
     1     1     3 1   
     2     1     6 1   
     3     1    28 1   
     4     1    29 1   
     5     2    21 1   
     6     2    22 1   
     7     2    26 2   
     8     3     4 1   
     9     3    22 1   
    10     3    30 1   
    11     4     5 1   
    12     4    21 1   
    13     4    31 1   
    14     5    28 1   
    15     5    32 1   
    16     5    33 1   
    17     6     7 1   
    18     6    34 1   
    19     6    35 1   
    20     7     8 1   
    21     7    36 1   
    22     7    37 1   
    23     8     9 1   
    24     8    38 1   
    25     8    39 1   
    26     9    15 1   
    27     9    40 1   
    28     9    41 1   
    29    10    11 1   
    30    10    12 1   
    31    10    23 1   
    32    10    42 1   
    33    11    14 1   
    34    11    43 1   
    35    11    44 1   
    36    12    13 1   
    37    12    45 1   
    38    12    46 1   
    39    13    24 1   
    40    13    47 1   
    41    13    48 1   
    42    14    24 1   
    43    14    49 1   
    44    14    50 1   
    45    15    23 1   
    46    15    27 2   
    47    16    17 ar  
    48    16    18 ar  
    49    16    24 1   
    50    17    20 ar  
    51    17    51 1   
    52    18    19 ar  
    53    18    52 1   
    54    19    25 ar  
    55    19    53 1   
    56    20    25 ar  
    57    20    54 1   
    58    21    55 1   
    59    22    56 1   
    60    23    57 1   
@<TRIPOS>SUBSTRUCTURE
     1 HL9         1 TEMP              0 ****  ****    0 ROOT
