@<TRIPOS>MOLECULE
HL9
   57    60     1     0     0
SMALL
No Charge or Current Charge


@<TRIPOS>ATOM
      1 C01         18.0980    28.0180   -10.2910 c5         1 HL9       0.074300
      2 C05         15.9830    28.7110    -7.7420 c          1 HL9       0.612000
      3 C08         17.3620    29.2130    -9.5810 c5         1 HL9       0.096700
      4 C10         18.1330    29.5280    -8.2330 c5         1 HL9       0.102700
      5 C12         19.2550    28.4520    -8.0360 c5         1 HL9       0.029600
      6 C14         17.2680    27.2250   -11.3370 c3         1 HL9      -0.058400
      7 C15         18.0870    26.1910   -12.1450 c3         1 HL9      -0.081400
      8 C16         17.2450    25.4520   -13.2120 c3         1 HL9      -0.065400
      9 C17         18.0360    24.3780   -13.9980 c3         1 HL9      -0.156400
     10 C18         21.7070    25.1890   -14.9070 c6         1 HL9       0.115700
     11 C19         22.8130    25.2540   -13.8310 c6         1 HL9      -0.105900
     12 C20         22.1590    24.2300   -16.0330 c6         1 HL9      -0.105900
     13 C21         23.5140    24.6720   -16.6320 c6         1 HL9       0.222300
     14 C22         24.1600    25.6950   -14.4470 c6         1 HL9       0.222300
     15 C23         19.1880    24.9800   -14.8110 c          1 HL9       0.600100
     16 C24         25.9150    24.5890   -15.8560 ca         1 HL9       0.376000
     17 C25         26.4450    24.8330   -17.1280 ca         1 HL9      -0.246500
     18 C26         26.7810    24.1260   -14.8610 ca         1 HL9      -0.246500
     19 C27         28.1300    23.9260   -15.1690 ca         1 HL9       0.365900
     20 C28         27.8080    24.6100   -17.3530 ca         1 HL9       0.365900
     21 N02         17.1260    29.2090    -7.2170 ns         1 HL9      -0.522900
     22 N06         16.0730    28.7100    -9.0910 ns         1 HL9      -0.510900
     23 N09         20.4450    24.7340   -14.3110 ns         1 HL9      -0.507900
     24 N11         24.5490    24.7950   -15.5680 nh         1 HL9      -0.822400
     25 N13         28.6460    24.1620   -16.3940 nb         1 HL9      -0.695000
     26 O03         15.0190    28.3410    -7.1010 o          1 HL9      -0.575000
     27 O07         19.0060    25.6120   -15.8420 o          1 HL9      -0.608100
     28 S04         18.6920    26.9260    -8.9200 ss         1 HL9      -0.413000
     29 H011        18.9840    28.4140   -10.8060 h1         1 HL9       0.070700
     30 H081        17.2520    30.0940   -10.2290 h1         1 HL9       0.064700
     31 H101        18.5030    30.5600    -8.1650 h1         1 HL9       0.071700
     32 H122        19.4610    28.2420    -6.9780 h1         1 HL9       0.077700
     33 H121        20.1920    28.7940    -8.4950 h1         1 HL9       0.077700
     34 H142        16.8140    27.9330   -12.0420 hc         1 HL9       0.053700
     35 H141        16.4390    26.7030   -10.8440 hc         1 HL9       0.053700
     36 H151        18.5200    25.4530   -11.4590 hc         1 HL9       0.048200
     37 H152        18.9250    26.7060   -12.6310 hc         1 HL9       0.048200
     38 H162        16.8290    26.1830   -13.9180 hc         1 HL9       0.051700
     39 H161        16.3910    24.9690   -12.7210 hc         1 HL9       0.051700
     40 H171        17.3440    23.8860   -14.6900 hc         1 HL9       0.059700
     41 H172        18.4230    23.6410   -13.2830 hc         1 HL9       0.059700
     42 H181        21.5560    26.1960   -15.3260 h1         1 HL9       0.074700
     43 H192        22.5260    25.9570   -13.0390 hc         1 HL9       0.057700
     44 H191        22.9370    24.2720   -13.3540 hc         1 HL9       0.057700
     45 H202        21.4030    24.1970   -16.8280 hc         1 HL9       0.057700
     46 H201        22.2500    23.2080   -15.6420 hc         1 HL9       0.057700
     47 H212        23.8200    23.9280   -17.3820 h1         1 HL9       0.047450
     48 H211        23.3890    25.6340   -17.1510 h1         1 HL9       0.047450
     49 H221        24.9250    25.6950   -13.6570 h1         1 HL9       0.047450
     50 H222        24.0720    26.7290   -14.8120 h1         1 HL9       0.047450
     51 H251        25.8260    25.2040   -17.9370 ha         1 HL9       0.118500
     52 H261        26.4160    23.9090   -13.8640 ha         1 HL9       0.118500
     53 H271        28.8240    23.5620   -14.4110 h4         1 HL9       0.012100
     54 H281        28.2470    24.7960   -18.3320 h4         1 HL9       0.012100
     55 H021        17.2260    29.2770    -6.2110 hn         1 HL9       0.341500
     56 H061        15.2950    28.3740    -9.6430 hn         1 HL9       0.336500
     57 H091        20.4900    24.1920   -13.4570 hn         1 HL9       0.312500
@<TRIPOS>BOND
     1     1     3 1   
     2     1     6 1   
     3     1    28 1   
     4     1    29 1   
     5     2    21 1   
     6     2    22 1   
     7     2    26 2   
     8     3     4 1   
     9     3    22 1   
    10     3    30 1   
    11     4     5 1   
    12     4    21 1   
    13     4    31 1   
    14     5    28 1   
    15     5    32 1   
    16     5    33 1   
    17     6     7 1   
    18     6    34 1   
    19     6    35 1   
    20     7     8 1   
    21     7    36 1   
    22     7    37 1   
    23     8     9 1   
    24     8    38 1   
    25     8    39 1   
    26     9    15 1   
    27     9    40 1   
    28     9    41 1   
    29    10    11 1   
    30    10    12 1   
    31    10    23 1   
    32    10    42 1   
    33    11    14 1   
    34    11    43 1   
    35    11    44 1   
    36    12    13 1   
    37    12    45 1   
    38    12    46 1   
    39    13    24 1   
    40    13    47 1   
    41    13    48 1   
    42    14    24 1   
    43    14    49 1   
    44    14    50 1   
    45    15    23 1   
    46    15    27 2   
    47    16    17 ar  
    48    16    18 ar  
    49    16    24 1   
    50    17    20 ar  
    51    17    51 1   
    52    18    19 ar  
    53    18    52 1   
    54    19    25 ar  
    55    19    53 1   
    56    20    25 ar  
    57    20    54 1   
    58    21    55 1   
    59    22    56 1   
    60    23    57 1   
@<TRIPOS>SUBSTRUCTURE
     1 HL9         1 TEMP              0 ****  ****    0 ROOT
