@<TRIPOS>MOLECULE
HLA
   29    30     1     0     0
SMALL
No Charge or Current Charge


@<TRIPOS>ATOM
      1 C4          -0.3230     0.3510    -0.5830 c6         1 HLA       0.160300
      2 C5          -0.4010    -1.1720    -0.9150 c6         1 HLA       0.083300
      3 C6           1.0240    -1.7750    -0.8080 c6         1 HLA       0.179600
      4 C3          -1.7650     0.9550    -0.5590 c6         1 HLA       0.190300
      5 C1          -2.6770    -1.3520    -0.0640 c6         1 HLA       0.134600
      6 C2          -2.6940     0.1360     0.3840 c6         1 HLA       0.087300
      7 CAM          1.7460     0.0190     0.6890 c6         1 HLA       0.229000
      8 CAN          2.2440     0.1740     2.1490 c3         1 HLA      -0.055100
      9 CAO          2.7990     0.7850    -0.2610 c          1 HLA       0.688000
     10 O2          -4.0320     0.6890     0.3710 oh         1 HLA      -0.739000
     11 O3          -1.7950     2.3350    -0.1590 oh         1 HLA      -0.677000
     12 O4           0.3900     0.5550     0.6710 os         1 HLA      -0.447000
     13 O5          -1.3250    -1.8600    -0.0290 os         1 HLA      -0.430000
     14 O6           1.6400    -1.4170     0.4550 os         1 HLA      -0.454000
     15 OAP          2.4850     1.8920    -0.6850 o          1 HLA      -0.707000
     16 OAQ          3.6160     0.1050    -0.8740 o          1 HLA      -0.707000
     17 H1           0.2320     0.8530    -1.3880 h1         1 HLA       0.083700
     18 H2          -0.7600    -1.2990    -1.9470 h1         1 HLA       0.023700
     19 H3           0.9730    -2.8700    -0.8860 h1         1 HLA       0.052700
     20 H4           1.6450    -1.4110    -1.6380 h1         1 HLA       0.052700
     21 H5          -2.1710     0.8730    -1.5780 h1         1 HLA       0.020700
     22 H6          -3.2950    -1.9580     0.6130 h1         1 HLA       0.031700
     23 H7          -3.0760    -1.4550    -1.0840 h1         1 HLA       0.031700
     24 H8          -2.2770     0.1820     1.4030 h1         1 HLA       0.074700
     25 H9           2.3040     1.2310     2.4340 hc         1 HLA       0.035033
     26 H10          1.5730    -0.3270     2.8570 hc         1 HLA       0.035033
     27 H11          3.2440    -0.2580     2.2720 hc         1 HLA       0.035033
     28 H12         -4.5760     0.1570     1.0000 ho         1 HLA       0.496000
     29 H13         -2.7190     2.4590     0.1620 ho         1 HLA       0.491000
@<TRIPOS>BOND
     1     1     2 1   
     2     1     4 1   
     3     1    12 1   
     4     1    17 1   
     5     2     3 1   
     6     2    13 1   
     7     2    18 1   
     8     3    14 1   
     9     3    19 1   
    10     3    20 1   
    11     4     6 1   
    12     4    11 1   
    13     4    21 1   
    14     5     6 1   
    15     5    13 1   
    16     5    22 1   
    17     5    23 1   
    18     6    10 1   
    19     6    24 1   
    20     7     8 1   
    21     7     9 1   
    22     7    12 1   
    23     7    14 1   
    24     8    25 1   
    25     8    26 1   
    26     8    27 1   
    27     9    15 1   
    28     9    16 1   
    29    10    28 1   
    30    11    29 1   
@<TRIPOS>SUBSTRUCTURE
     1 HLA         1 TEMP              0 ****  ****    0 ROOT
