@<TRIPOS>MOLECULE
HLA
   29    30     1     0     0
SMALL
abcg2


@<TRIPOS>ATOM
      1 C4          -0.3360     0.3380    -0.6050 c6         1 HLA       0.160300
      2 C5          -0.4030    -1.1520    -0.9370 c6         1 HLA       0.083300
      3 C6           0.9980    -1.7210    -0.8320 c6         1 HLA       0.179600
      4 C3          -1.7350     0.9230    -0.5170 c6         1 HLA       0.190300
      5 C1          -2.5490    -1.3650    -0.0070 c6         1 HLA       0.134600
      6 C2          -2.5990     0.0980     0.4250 c6         1 HLA       0.087300
      7 CAM          1.6210    -0.0190     0.6650 c6         1 HLA       0.229000
      8 CAN          2.1170     0.1540     2.0890 c3         1 HLA      -0.055100
      9 CAO          2.6030     0.7300    -0.2980 c          1 HLA       0.688000
     10 O2          -3.9160     0.6020     0.3440 oh         1 HLA      -0.739000
     11 O3          -1.6500     2.2710    -0.1360 oh         1 HLA      -0.677000
     12 O4           0.3230     0.5210     0.6250 os         1 HLA      -0.447000
     13 O5          -1.2300    -1.8510    -0.0330 os         1 HLA      -0.430000
     14 O6           1.5810    -1.3990     0.4090 os         1 HLA      -0.454000
     15 OAP          2.3730     1.9370    -0.4830 o          1 HLA      -0.707000
     16 OAQ          3.5620     0.0660    -0.7260 o          1 HLA      -0.707000
     17 H1           0.2060     0.8460    -1.4160 h1         1 HLA       0.083700
     18 H2          -0.7630    -1.2770    -1.9700 h1         1 HLA       0.023700
     19 H3           0.9780    -2.8100    -0.9090 h1         1 HLA       0.052700
     20 H4           1.5940    -1.3420    -1.6700 h1         1 HLA       0.052700
     21 H5          -2.1690     0.8290    -1.5270 h1         1 HLA       0.020700
     22 H6          -3.1080    -1.9880     0.6960 h1         1 HLA       0.031700
     23 H7          -3.0290    -1.4680    -0.9930 h1         1 HLA       0.031700
     24 H8          -2.2060     0.1880     1.4460 h1         1 HLA       0.074700
     25 H9           2.1480     1.2110     2.3530 hc         1 HLA       0.035033
     26 H10          1.4620    -0.3600     2.7950 hc         1 HLA       0.035033
     27 H11          3.1240    -0.2490     2.1950 hc         1 HLA       0.035033
     28 H12         -4.4200     0.2690     1.0920 ho         1 HLA       0.496000
     29 H13         -2.5470     2.6150    -0.0720 ho         1 HLA       0.491000
@<TRIPOS>BOND
     1     1     2 1   
     2     1     4 1   
     3     1    12 1   
     4     1    17 1   
     5     2     3 1   
     6     2    13 1   
     7     2    18 1   
     8     3    14 1   
     9     3    19 1   
    10     3    20 1   
    11     4     6 1   
    12     4    11 1   
    13     4    21 1   
    14     5     6 1   
    15     5    13 1   
    16     5    22 1   
    17     5    23 1   
    18     6    10 1   
    19     6    24 1   
    20     7     8 1   
    21     7     9 1   
    22     7    12 1   
    23     7    14 1   
    24     8    25 1   
    25     8    26 1   
    26     8    27 1   
    27     9    15 1   
    28     9    16 1   
    29    10    28 1   
    30    11    29 1   
@<TRIPOS>SUBSTRUCTURE
     1 HLA         1 TEMP              0 ****  ****    0 ROOT
