@<TRIPOS>MOLECULE
HLC
   36    37     1     0     0
SMALL
bcc


@<TRIPOS>ATOM
      1 N1          -3.7910    -0.6430    -0.2680 ns         1 HLC      -0.560900
      2 C1          -5.6700     0.5390     0.7970 c          1 HLC       0.704600
      3 O1          -5.0600     1.2970     1.4980 o          1 HLC      -0.544500
      4 C2          -7.4230    -0.6990     0.0220 c5         1 HLC       0.133400
      5 O2          -6.9550     0.2600     0.9900 os         1 HLC      -0.399900
      6 C3          -6.1670    -1.3730    -0.5090 c5         1 HLC      -0.129400
      7 O3           2.0650     0.7750    -0.3550 os         1 HLC      -0.317900
      8 C4          -5.1550    -0.2400    -0.4060 c5         1 HLC      -0.003300
      9 O4          -2.9050     1.0520    -1.4660 o          1 HLC      -0.582100
     10 C5          -2.7560     0.0410    -0.7990 c          1 HLC       0.678100
     11 C6          -1.3980    -0.5760    -0.5420 c3         1 HLC      -0.153400
     12 C7          -0.2740     0.4480    -0.5570 c3         1 HLC      -0.072400
     13 C8           1.0610    -0.2260    -0.3160 c3         1 HLC       0.140400
     14 C9           3.3450     0.4270    -0.1370 ca         1 HLC       0.150100
     15 C10          4.2820     1.4620    -0.1840 ca         1 HLC      -0.184500
     16 C11          5.6230     1.2060     0.0290 ca         1 HLC      -0.083000
     17 C12          6.0410    -0.0920     0.2910 ca         1 HLC      -0.011600
     18 C13          5.1250    -1.1270     0.3400 ca         1 HLC      -0.083000
     19 C14          3.7760    -0.8710     0.1260 ca         1 HLC      -0.184500
     20 H1          -3.5980    -1.4350     0.3240 hn         1 HLC       0.316500
     21 H2          -8.1070    -1.3780     0.5240 h1         1 HLC       0.067700
     22 H3          -7.9620    -0.1660    -0.7620 h1         1 HLC       0.067700
     23 H4          -5.8740    -2.2070     0.1330 hc         1 HLC       0.069200
     24 H5          -6.2940    -1.7460    -1.5230 hc         1 HLC       0.069200
     25 H6          -5.2410     0.4200    -1.2750 h1         1 HLC       0.114700
     26 H7          -1.4070    -1.1210     0.4060 hc         1 HLC       0.057200
     27 H8          -1.2320    -1.3270    -1.3210 hc         1 HLC       0.057200
     28 H9          -0.2540     0.9650    -1.5180 hc         1 HLC       0.076200
     29 H10         -0.4430     1.2010     0.2160 hc         1 HLC       0.076200
     30 H11          1.2500    -0.9870    -1.0830 h1         1 HLC       0.032700
     31 H12          1.0630    -0.7310     0.6570 h1         1 HLC       0.032700
     32 H13          3.9530     2.4730    -0.3890 ha         1 HLC       0.143500
     33 H14          6.3380     2.0170    -0.0100 ha         1 HLC       0.146500
     34 H15          5.4480    -2.1380     0.5440 ha         1 HLC       0.146500
     35 H16          3.0840    -1.7000     0.1680 ha         1 HLC       0.143500
     36 CL1          7.7250    -0.4140     0.5610 cl         1 HLC      -0.114400
@<TRIPOS>BOND
     1     1     8 1   
     2     1    10 1   
     3     1    20 1   
     4     2     3 2   
     5     2     5 1   
     6     2     8 1   
     7     4     5 1   
     8     4     6 1   
     9     4    21 1   
    10     4    22 1   
    11     6     8 1   
    12     6    23 1   
    13     6    24 1   
    14     7    13 1   
    15     7    14 1   
    16     8    25 1   
    17     9    10 2   
    18    10    11 1   
    19    11    12 1   
    20    11    26 1   
    21    11    27 1   
    22    12    13 1   
    23    12    28 1   
    24    12    29 1   
    25    13    30 1   
    26    13    31 1   
    27    14    15 ar  
    28    14    19 ar  
    29    15    16 ar  
    30    15    32 1   
    31    16    17 ar  
    32    16    33 1   
    33    17    18 ar  
    34    17    36 1   
    35    18    19 ar  
    36    18    34 1   
    37    19    35 1   
@<TRIPOS>SUBSTRUCTURE
     1 HLC         1 TEMP              0 ****  ****    0 ROOT
