@<TRIPOS>MOLECULE
HLC
   36    37     1     0     0
SMALL
No Charge or Current Charge


@<TRIPOS>ATOM
      1 N1          -3.7310    -0.3370     0.0460 ns         1 HLC      -0.493900
      2 C1          -5.7340     0.5400     1.2220 c          1 HLC       0.629100
      3 O1          -5.1730     0.9540     2.2280 o          1 HLC      -0.469000
      4 C2          -7.3110    -0.5340    -0.0690 c5         1 HLC       0.156600
      5 O2          -6.9710    -0.0440     1.2480 os         1 HLC      -0.423100
      6 C3          -5.9530    -0.9410    -0.6920 c5         1 HLC      -0.129400
      7 O3           1.9460     0.5740    -0.3700 os         1 HLC      -0.341100
      8 C4          -5.0900     0.2290    -0.1530 c5         1 HLC      -0.003300
      9 O4          -3.1690     0.0170    -2.1470 o          1 HLC      -0.582100
     10 C5          -2.8660    -0.3830    -1.0310 c          1 HLC       0.611100
     11 C6          -1.4980    -1.0030    -0.7300 c3         1 HLC      -0.153400
     12 C7          -0.3840     0.0710    -0.6830 c3         1 HLC      -0.072400
     13 C8           1.0100    -0.5170    -0.3890 c3         1 HLC       0.163600
     14 C9           3.2910     0.3830    -0.1310 ca         1 HLC       0.150100
     15 C10          4.1230     1.5150    -0.1340 ca         1 HLC      -0.166500
     16 C11          5.5040     1.3850     0.1040 ca         1 HLC      -0.065000
     17 C12          6.0550     0.1160     0.3450 ca         1 HLC       0.080000
     18 C13          5.2300    -1.0210     0.3500 ca         1 HLC      -0.065000
     19 C14          3.8490    -0.8920     0.1120 ca         1 HLC      -0.166500
     20 H1          -3.3850    -0.6830     0.9360 hn         1 HLC       0.316500
     21 H2          -8.0220    -1.3680     0.0060 h1         1 HLC       0.067700
     22 H3          -7.7840     0.2790    -0.6390 h1         1 HLC       0.067700
     23 H4          -5.6350    -1.9200    -0.3110 hc         1 HLC       0.069200
     24 H5          -5.9780    -0.9930    -1.7860 hc         1 HLC       0.069200
     25 H6          -5.1370     1.1320    -0.7780 h1         1 HLC       0.114700
     26 H7          -1.5240    -1.5200     0.2370 hc         1 HLC       0.057200
     27 H8          -1.2570    -1.7190    -1.5250 hc         1 HLC       0.057200
     28 H9          -0.3490     0.6030    -1.6430 hc         1 HLC       0.076200
     29 H10         -0.6270     0.8140     0.0870 hc         1 HLC       0.076200
     30 H11          1.2740    -1.2420    -1.1690 h1         1 HLC       0.032700
     31 H12          0.9930    -1.0310     0.5810 h1         1 HLC       0.032700
     32 H13          3.6960     2.4970    -0.3210 ha         1 HLC       0.125500
     33 H14          6.1440     2.2640     0.1010 ha         1 HLC       0.128500
     34 H15          5.6610    -2.0020     0.5370 ha         1 HLC       0.128500
     35 H16          3.2330    -1.7870     0.1210 ha         1 HLC       0.125500
     36 Cl1          7.7810    -0.0500     0.6430 cl         1 HLC      -0.206000
@<TRIPOS>BOND
     1     1     8 1   
     2     1    10 1   
     3     1    20 1   
     4     2     3 2   
     5     2     5 1   
     6     2     8 1   
     7     4     5 1   
     8     4     6 1   
     9     4    21 1   
    10     4    22 1   
    11     6     8 1   
    12     6    23 1   
    13     6    24 1   
    14     7    13 1   
    15     7    14 1   
    16     8    25 1   
    17     9    10 2   
    18    10    11 1   
    19    11    12 1   
    20    11    26 1   
    21    11    27 1   
    22    12    13 1   
    23    12    28 1   
    24    12    29 1   
    25    13    30 1   
    26    13    31 1   
    27    14    15 ar  
    28    14    19 ar  
    29    15    16 ar  
    30    15    32 1   
    31    16    17 ar  
    32    16    33 1   
    33    17    18 ar  
    34    17    36 1   
    35    18    19 ar  
    36    18    34 1   
    37    19    35 1   
@<TRIPOS>SUBSTRUCTURE
     1 HLC         1 TEMP              0 ****  ****    0 ROOT
