@<TRIPOS>MOLECULE
HLD
   15    15     1     0     0
SMALL
No Charge or Current Charge


@<TRIPOS>ATOM
      1 OAC        -11.6910     0.4320    24.4300 o          1 HLD      -0.693100
      2 CAM        -11.9560     1.5820    24.7440 c          1 HLD       0.576500
      3 CAF        -13.1970     2.2280    24.4060 cc         1 HLD      -0.428200
      4 CAK        -13.4900     3.5370    24.7680 cd         1 HLD       0.047400
      5 CAI        -14.8030     4.2000    24.4030 c          1 HLD       0.720200
      6 OAD        -15.6370     3.5640    23.7670 o          1 HLD      -0.704750
      7 OAA        -15.0010     5.3580    24.7520 o          1 HLD      -0.704750
      8 CAG        -11.0580     2.4240    25.4890 cc         1 HLD      -0.428200
      9 CAL        -11.3670     3.7320    25.8420 cd         1 HLD       0.047400
     10 OAH        -12.5830     4.3070    25.4890 os         1 HLD      -0.138200
     11 CAJ        -10.4070     4.6040    26.6270 c          1 HLD       0.720200
     12 OAE         -9.3210     4.1440    26.9630 o          1 HLD      -0.704750
     13 OAB        -10.7400     5.7500    26.9080 o          1 HLD      -0.704750
     14 H1         -13.8970     1.6210    23.8450 ha         1 HLD       0.197500
     15 H3         -10.1130     1.9680    25.7590 ha         1 HLD       0.197500
@<TRIPOS>BOND
     1     1     2 2   
     2     2     3 1   
     3     2     8 1   
     4     3     4 2   
     5     3    14 1   
     6     4     5 1   
     7     4    10 1   
     8     5     6 1   
     9     5     7 1   
    10     8     9 2   
    11     8    15 1   
    12     9    10 1   
    13     9    11 1   
    14    11    12 1   
    15    11    13 1   
@<TRIPOS>SUBSTRUCTURE
     1 HLD         1 TEMP              0 ****  ****    0 ROOT
