@<TRIPOS>MOLECULE
HLD
   15    15     1     0     0
SMALL
abcg2


@<TRIPOS>ATOM
      1 OAC        -11.6930     0.3840    24.4420 o          1 HLD      -0.693100
      2 CAM        -11.9590     1.5590    24.7530 c          1 HLD       0.576500
      3 CAF        -13.2030     2.2090    24.3990 cc         1 HLD      -0.428200
      4 CAK        -13.4590     3.4830    24.7640 cd         1 HLD       0.047400
      5 CAI        -14.7560     4.2390    24.4400 c          1 HLD       0.720200
      6 OAD        -15.5420     3.6400    23.6730 o          1 HLD      -0.704750
      7 OAA        -14.8950     5.3590    24.9730 o          1 HLD      -0.704750
      8 CAG        -11.0510     2.4050    25.4990 cc         1 HLD      -0.428200
      9 CAL        -11.3760     3.6750    25.8220 cd         1 HLD       0.047400
     10 OAH        -12.5670     4.2110    25.4720 os         1 HLD      -0.138200
     11 CAJ        -10.4610     4.6390    26.5920 c          1 HLD       0.720200
     12 OAE         -9.3600     4.1600    26.9420 o          1 HLD      -0.704750
     13 OAB        -10.9030     5.7910    26.7840 o          1 HLD      -0.704750
     14 H1         -13.9470     1.6720    23.8310 ha         1 HLD       0.197500
     15 H3         -10.0880     2.0240    25.8050 ha         1 HLD       0.197500
@<TRIPOS>BOND
     1     1     2 2   
     2     2     3 1   
     3     2     8 1   
     4     3     4 2   
     5     3    14 1   
     6     4     5 1   
     7     4    10 1   
     8     5     6 1   
     9     5     7 1   
    10     8     9 2   
    11     8    15 1   
    12     9    10 1   
    13     9    11 1   
    14    11    12 1   
    15    11    13 1   
@<TRIPOS>SUBSTRUCTURE
     1 HLD         1 TEMP              0 ****  ****    0 ROOT
