@<TRIPOS>MOLECULE
HLE
   28    27     1     0     0
SMALL
bcc


@<TRIPOS>ATOM
      1 N            0.5450     1.1480    -2.5080 ns         1 HLE      -0.440400
      2 OH           1.1470     1.0060    -3.7190 oh         1 HLE      -0.377100
      3 CA           0.0160     0.0410     0.4320 c3         1 HLE      -0.214700
      4 CB          -0.5540     0.4440     1.7970 c3         1 HLE      -0.062400
      5 CG           0.2670    -0.0160     3.0040 c3         1 HLE      -0.063700
      6 CD1          1.7090     0.4780     2.9500 c3         1 HLE      -0.090100
      7 CD2         -0.4100     0.4450     4.2900 c3         1 HLE      -0.090100
      8 C            0.2060    -1.4500     0.3780 c          1 HLE       0.579900
      9 O            1.2640    -2.0000     0.1960 o          1 HLE      -0.505100
     10 C1          -0.9200     0.5200    -0.7030 c3         1 HLE       0.083100
     11 O3          -2.1920    -0.0550    -0.6470 oh         1 HLE      -0.579800
     12 C2          -0.2740     0.1990    -2.0470 c          1 HLE       0.632100
     13 O2          -0.4730    -0.8770    -2.5860 o          1 HLE      -0.572100
     14 HN           0.5690     2.0820    -2.1220 hn         1 HLE       0.341500
     15 HO           2.0450     0.6960    -3.5410 ho         1 HLE       0.411000
     16 HA           0.9890     0.5160     0.2780 hc         1 HLE       0.074700
     17 HB1         -1.5730     0.0580     1.8920 hc         1 HLE       0.052200
     18 HB2         -0.6350     1.5360     1.8160 hc         1 HLE       0.052200
     19 HG           0.2820    -1.1130     3.0170 hc         1 HLE       0.048700
     20 HD11         2.2500     0.1900     3.8540 hc         1 HLE       0.035533
     21 HD12         2.2600     0.0680     2.1020 hc         1 HLE       0.035533
     22 HD13         1.7460     1.5670     2.8750 hc         1 HLE       0.035533
     23 HD21        -0.4200     1.5360     4.3560 hc         1 HLE       0.035533
     24 HD22        -1.4440     0.1000     4.3450 hc         1 HLE       0.035533
     25 HD23         0.1140     0.0660     5.1680 hc         1 HLE       0.035533
     26 H           -0.7110    -2.0430     0.5470 h4         1 HLE      -0.003800
     27 H1          -1.0390     1.6030    -0.5830 h1         1 HLE       0.077700
     28 HO3         -2.1850    -0.8620    -1.1780 ho         1 HLE       0.433000
@<TRIPOS>BOND
     1     1     2 1   
     2     1    12 1   
     3     1    14 1   
     4     2    15 1   
     5     3     4 1   
     6     3     8 1   
     7     3    10 1   
     8     3    16 1   
     9     4     5 1   
    10     4    17 1   
    11     4    18 1   
    12     5     6 1   
    13     5     7 1   
    14     5    19 1   
    15     6    20 1   
    16     6    21 1   
    17     6    22 1   
    18     7    23 1   
    19     7    24 1   
    20     7    25 1   
    21     8     9 2   
    22     8    26 1   
    23    10    11 1   
    24    10    12 1   
    25    10    27 1   
    26    11    28 1   
    27    12    13 2   
@<TRIPOS>SUBSTRUCTURE
     1 HLE         1 TEMP              0 ****  ****    0 ROOT
