@<TRIPOS>MOLECULE
HLE
   28    27     1     0     0
SMALL
No Charge or Current Charge


@<TRIPOS>ATOM
      1 N            0.4960     1.1950    -2.6930 ns         1 HLE      -0.373400
      2 OH           0.9800     1.1660    -4.0590 oh         1 HLE      -0.416100
      3 CA           0.0360    -0.1850     0.4870 c3         1 HLE      -0.214700
      4 CB          -0.5050     0.4180     1.8190 c3         1 HLE      -0.062400
      5 CG           0.2700     0.0210     3.1090 c3         1 HLE      -0.063700
      6 CD1          1.7560     0.4530     3.0790 c3         1 HLE      -0.090100
      7 CD2         -0.4340     0.5830     4.3650 c3         1 HLE      -0.090100
      8 C            0.0970    -1.7210     0.5480 c          1 HLE       0.579900
      9 O            1.1430    -2.3520     0.4460 o          1 HLE      -0.505100
     10 C1          -0.7890     0.2880    -0.7430 c3         1 HLE       0.106300
     11 O3          -2.0930    -0.3440    -0.7170 oh         1 HLE      -0.642000
     12 C2          -0.0260     0.0500    -2.0940 c          1 HLE       0.565100
     13 O2           0.0840    -1.0580    -2.6090 o          1 HLE      -0.572100
     14 HN           0.2610     2.1150    -2.3200 hn         1 HLE       0.341500
     15 HO           1.8740     1.5800    -3.9990 ho         1 HLE       0.450000
     16 HA           1.0610     0.1770     0.3440 hc         1 HLE       0.074700
     17 HB1         -1.5530     0.1170     1.9400 hc         1 HLE       0.052200
     18 HB2         -0.5100     1.5130     1.7370 hc         1 HLE       0.052200
     19 HG           0.2480    -1.0720     3.2000 hc         1 HLE       0.048700
     20 HD11         2.2490     0.2070     4.0270 hc         1 HLE       0.035533
     21 HD12         2.3040    -0.0620     2.2830 hc         1 HLE       0.035533
     22 HD13         1.8460     1.5340     2.9180 hc         1 HLE       0.035533
     23 HD21        -0.4440     1.6800     4.3510 hc         1 HLE       0.035533
     24 HD22        -1.4720     0.2310     4.4200 hc         1 HLE       0.035533
     25 HD23         0.0790     0.2570     5.2780 hc         1 HLE       0.035533
     26 H           -0.8720    -2.2430     0.7130 h4         1 HLE      -0.003800
     27 H1          -0.9160     1.3770    -0.6560 h1         1 HLE       0.077700
     28 HO3         -2.5920    -0.0410    -1.5100 ho         1 HLE       0.472000
@<TRIPOS>BOND
     1     1     2 1   
     2     1    12 1   
     3     1    14 1   
     4     2    15 1   
     5     3     4 1   
     6     3     8 1   
     7     3    10 1   
     8     3    16 1   
     9     4     5 1   
    10     4    17 1   
    11     4    18 1   
    12     5     6 1   
    13     5     7 1   
    14     5    19 1   
    15     6    20 1   
    16     6    21 1   
    17     6    22 1   
    18     7    23 1   
    19     7    24 1   
    20     7    25 1   
    21     8     9 2   
    22     8    26 1   
    23    10    11 1   
    24    10    12 1   
    25    10    27 1   
    26    11    28 1   
    27    12    13 2   
@<TRIPOS>SUBSTRUCTURE
     1 HLE         1 TEMP              0 ****  ****    0 ROOT
