@<TRIPOS>MOLECULE
HLF
   21    21     1     0     0
SMALL
No Charge or Current Charge


@<TRIPOS>ATOM
      1 C01         21.9310    13.5330     9.9680 cc         1 HLF       0.203900
      2 C02         22.4070    12.9740     8.8210 cd         1 HLF      -0.300000
      3 N03         21.5650    11.9090     8.5450 na         1 HLF      -0.145500
      4 C04         20.5920    11.8600     9.5630 cd         1 HLF       0.367000
      5 N05         20.8360    12.8660    10.4240 nc         1 HLF      -0.678000
      6 C06         19.4350    10.8550     9.7320 c          1 HLF       0.639500
      7 O07         18.6710    10.9740    10.6890 o          1 HLF      -0.703500
      8 O08         19.2880     9.9370     8.9310 o          1 HLF      -0.703500
      9 C09         21.6950    11.0340     7.3620 c3         1 HLF       0.078600
     10 C10         21.0420    11.6220     6.0910 c3         1 HLF      -0.055200
     11 C11         19.5470    11.8370     6.2250 c2         1 HLF      -0.187200
     12 C12         18.9350    13.0310     6.2140 c2         1 HLF      -0.334000
     13 H1          22.3130    14.3900    10.5070 h4         1 HLF       0.004100
     14 H2          23.2490    13.2510     8.1980 h4         1 HLF       0.122000
     15 H4          21.2820    10.0420     7.5720 h1         1 HLF       0.067700
     16 H5          22.7650    10.8910     7.1660 h1         1 HLF       0.067700
     17 H6          21.2410    10.9460     5.2510 hc         1 HLF       0.029700
     18 H7          21.5420    12.5680     5.8470 hc         1 HLF       0.029700
     19 H8          18.9660    10.9170     6.3340 ha         1 HLF       0.196000
     20 H9          17.8520    13.1170     6.3150 ha         1 HLF       0.150500
     21 H10         19.4940    13.9620     6.1080 ha         1 HLF       0.150500
@<TRIPOS>BOND
     1     1     2 2   
     2     1     5 1   
     3     1    13 1   
     4     2     3 1   
     5     2    14 1   
     6     3     4 1   
     7     3     9 1   
     8     4     5 2   
     9     4     6 1   
    10     6     7 1   
    11     6     8 1   
    12     9    10 1   
    13     9    15 1   
    14     9    16 1   
    15    10    11 1   
    16    10    17 1   
    17    10    18 1   
    18    11    12 2   
    19    11    19 1   
    20    12    20 1   
    21    12    21 1   
@<TRIPOS>SUBSTRUCTURE
     1 HLF         1 TEMP              0 ****  ****    0 ROOT
