@<TRIPOS>MOLECULE
HLF
   21    21     1     0     0
SMALL
abcg2


@<TRIPOS>ATOM
      1 C01         21.8220    13.5410     9.8970 cc         1 HLF       0.203900
      2 C02         22.2920    12.9550     8.7570 cd         1 HLF      -0.300000
      3 N03         21.5140    11.8550     8.5530 na         1 HLF      -0.145500
      4 C04         20.5950    11.8140     9.5610 cd         1 HLF       0.367000
      5 N05         20.7760    12.8270    10.3860 nc         1 HLF      -0.678000
      6 C06         19.5190    10.7600     9.7630 c          1 HLF       0.639500
      7 O07         18.8050    10.9230    10.7640 o          1 HLF      -0.703500
      8 O08         19.4540     9.8390     8.9250 o          1 HLF      -0.703500
      9 C09         21.6610    11.0070     7.3830 c3         1 HLF       0.078600
     10 C10         21.0470    11.6400     6.1340 c3         1 HLF      -0.055200
     11 C11         19.5830    11.9050     6.2690 c2         1 HLF      -0.187200
     12 C12         19.0270    13.1090     6.1990 c2         1 HLF      -0.334000
     13 H1          22.1890    14.4330    10.3830 h4         1 HLF       0.004100
     14 H2          23.0990    13.2140     8.0910 h4         1 HLF       0.122000
     15 H4          21.2020    10.0490     7.5960 h1         1 HLF       0.067700
     16 H5          22.7270    10.8470     7.2190 h1         1 HLF       0.067700
     17 H6          21.2230    10.9460     5.3060 hc         1 HLF       0.029700
     18 H7          21.5760    12.5640     5.8870 hc         1 HLF       0.029700
     19 H8          18.9550    11.0390     6.4530 ha         1 HLF       0.196000
     20 H9          17.9590    13.2490     6.3060 ha         1 HLF       0.150500
     21 H10         19.6210    14.0010     6.0310 ha         1 HLF       0.150500
@<TRIPOS>BOND
     1     1     2 2   
     2     1     5 1   
     3     1    13 1   
     4     2     3 1   
     5     2    14 1   
     6     3     4 1   
     7     3     9 1   
     8     4     5 2   
     9     4     6 1   
    10     6     7 1   
    11     6     8 1   
    12     9    10 1   
    13     9    15 1   
    14     9    16 1   
    15    10    11 1   
    16    10    17 1   
    17    10    18 1   
    18    11    12 2   
    19    11    19 1   
    20    12    20 1   
    21    12    21 1   
@<TRIPOS>SUBSTRUCTURE
     1 HLF         1 TEMP              0 ****  ****    0 ROOT
