@<TRIPOS>MOLECULE
HLG
   34    33     1     0     0
SMALL
No Charge or Current Charge


@<TRIPOS>ATOM
      1 CAB          6.3010     1.0680    -0.0700 c3         1 HLG      -0.179100
      2 CAC          5.2560    -0.0340     0.0500 c          1 HLG       0.598100
      3 OAA          5.5520    -1.2120     0.1890 o          1 HLG      -0.609100
      4 NAD          3.9520     0.3970    -0.0090 ns         1 HLG      -0.510900
      5 CAE          2.7870    -0.4830     0.0850 c3         1 HLG       0.105000
      6 CAF          1.4680     0.3090     0.0130 c3         1 HLG      -0.099400
      7 CAG          0.2300    -0.6010     0.1090 c3         1 HLG       0.162800
      8 NAH         -0.9990     0.2070     0.0250 n7         1 HLG      -0.863400
      9 CAI         -2.2570    -0.5590     0.0920 c3         1 HLG       0.160800
     10 CAJ         -3.4650     0.3920    -0.0200 c3         1 HLG      -0.079400
     11 CAK         -4.8210    -0.3480     0.0370 c3         1 HLG      -0.078400
     12 CAL         -6.0290     0.6050    -0.0750 c3         1 HLG       0.150800
     13 NAM         -7.3050    -0.1300    -0.0130 n8         1 HLG      -0.996200
     14 H1           7.3270     0.6850    -0.0190 hc         1 HLG       0.058700
     15 H2           6.1250     1.6280    -0.9950 hc         1 HLG       0.058700
     16 H3           6.1130     1.8240     0.7000 hc         1 HLG       0.058700
     17 H4           3.8040     1.3930    -0.1260 hn         1 HLG       0.312500
     18 H5           2.8250    -1.2100    -0.7380 h1         1 HLG       0.051200
     19 H6           2.8340    -1.0330     1.0340 h1         1 HLG       0.051200
     20 H7           1.4450     1.0430     0.8270 hc         1 HLG       0.049200
     21 H8           1.4350     0.8660    -0.9320 hc         1 HLG       0.049200
     22 H9           0.2600    -1.3360    -0.7080 h1         1 HLG       0.032700
     23 H10          0.2620    -1.1530     1.0590 h1         1 HLG       0.032700
     24 H11         -0.9940     0.8780     0.8020 hn         1 HLG       0.404000
     25 H13         -2.3010    -1.2920    -0.7250 h1         1 HLG       0.030700
     26 H14         -2.3200    -1.1090     1.0410 h1         1 HLG       0.030700
     27 H15         -3.4240     1.1290     0.7920 hc         1 HLG       0.044200
     28 H16         -3.4000     0.9480    -0.9640 hc         1 HLG       0.044200
     29 H17         -4.8620    -1.0840    -0.7750 hc         1 HLG       0.046700
     30 H18         -4.8860    -0.9040     0.9810 hc         1 HLG       0.046700
     31 H19         -6.0030     1.3340     0.7460 h1         1 HLG       0.026700
     32 H20         -5.9820     1.1520    -1.0280 h1         1 HLG       0.026700
     33 H21         -8.0790     0.5320    -0.1530 hn         1 HLG       0.391500
     34 H22         -7.3720    -0.7520    -0.8280 hn         1 HLG       0.391500
@<TRIPOS>BOND
     1     1     2 1   
     2     1    14 1   
     3     1    15 1   
     4     1    16 1   
     5     2     3 2   
     6     2     4 1   
     7     4     5 1   
     8     4    17 1   
     9     5     6 1   
    10     5    18 1   
    11     5    19 1   
    12     6     7 1   
    13     6    20 1   
    14     6    21 1   
    15     7     8 1   
    16     7    22 1   
    17     7    23 1   
    18     8     9 1   
    19     8    24 1   
    20     9    10 1   
    21     9    25 1   
    22     9    26 1   
    23    10    11 1   
    24    10    27 1   
    25    10    28 1   
    26    11    12 1   
    27    11    29 1   
    28    11    30 1   
    29    12    13 1   
    30    12    31 1   
    31    12    32 1   
    32    13    33 1   
    33    13    34 1   
@<TRIPOS>SUBSTRUCTURE
     1 HLG         1 TEMP              0 ****  ****    0 ROOT
