@<TRIPOS>MOLECULE
HLG
   34    33     1     0     0
SMALL
abcg2


@<TRIPOS>ATOM
      1 CAB          6.2360     0.9660    -0.0510 c3         1 HLG      -0.179100
      2 CAC          5.1400    -0.0690     0.0280 c          1 HLG       0.598100
      3 OAA          5.3850    -1.2640     0.1370 o          1 HLG      -0.609100
      4 NAD          3.8880     0.4070    -0.0270 ns         1 HLG      -0.510900
      5 CAE          2.7170    -0.4420     0.0410 c3         1 HLG       0.105000
      6 CAF          1.4500     0.3970     0.0090 c3         1 HLG      -0.099400
      7 CAG          0.2020    -0.4710     0.0590 c3         1 HLG       0.162800
      8 NAH         -0.9990     0.3400     0.0150 n7         1 HLG      -0.863400
      9 CAI         -2.2170    -0.4490     0.0480 c3         1 HLG       0.160800
     10 CAJ         -3.4530     0.4360     0.0180 c3         1 HLG      -0.079400
     11 CAK         -4.7470    -0.3680     0.0280 c3         1 HLG      -0.078400
     12 CAL         -5.9850     0.5150    -0.0030 c3         1 HLG       0.150800
     13 NAM         -7.1990    -0.2890    -0.0000 n8         1 HLG      -0.996200
     14 H1           6.8590     0.9040     0.8400 hc         1 HLG       0.058700
     15 H2           6.8750     0.7550    -0.9090 hc         1 HLG       0.058700
     16 H3           5.8660     1.9860    -0.1420 hc         1 HLG       0.058700
     17 H4           3.7500     1.4000    -0.1220 hn         1 HLG       0.312500
     18 H5           2.7160    -1.1460    -0.7960 h1         1 HLG       0.051200
     19 H6           2.7450    -1.0400     0.9570 h1         1 HLG       0.051200
     20 H7           1.4490     1.0880     0.8580 hc         1 HLG       0.049200
     21 H8           1.4280     1.0040    -0.9010 hc         1 HLG       0.049200
     22 H9           0.1940    -1.1420    -0.8060 h1         1 HLG       0.032700
     23 H10          0.2420    -1.1200     0.9490 h1         1 HLG       0.032700
     24 H11         -0.9970     0.9650     0.8130 hn         1 HLG       0.404000
     25 H13         -2.2230    -1.1050    -0.8290 h1         1 HLG       0.030700
     26 H14         -2.2650    -1.1130     0.9270 h1         1 HLG       0.030700
     27 H15         -3.4380     1.1110     0.8810 hc         1 HLG       0.044200
     28 H16         -3.4160     1.0710    -0.8730 hc         1 HLG       0.044200
     29 H17         -4.7620    -1.0420    -0.8360 hc         1 HLG       0.046700
     30 H18         -4.7850    -1.0050     0.9170 hc         1 HLG       0.046700
     31 H19         -5.9920     1.1480     0.8890 h1         1 HLG       0.026700
     32 H20         -5.9140     1.1970    -0.8630 h1         1 HLG       0.026700
     33 H21         -8.0080     0.3190     0.0240 hn         1 HLG       0.391500
     34 H22         -7.2650    -0.7920    -0.8770 hn         1 HLG       0.391500
@<TRIPOS>BOND
     1     1     2 1   
     2     1    14 1   
     3     1    15 1   
     4     1    16 1   
     5     2     3 2   
     6     2     4 1   
     7     4     5 1   
     8     4    17 1   
     9     5     6 1   
    10     5    18 1   
    11     5    19 1   
    12     6     7 1   
    13     6    20 1   
    14     6    21 1   
    15     7     8 1   
    16     7    22 1   
    17     7    23 1   
    18     8     9 1   
    19     8    24 1   
    20     9    10 1   
    21     9    25 1   
    22     9    26 1   
    23    10    11 1   
    24    10    27 1   
    25    10    28 1   
    26    11    12 1   
    27    11    29 1   
    28    11    30 1   
    29    12    13 1   
    30    12    31 1   
    31    12    32 1   
    32    13    33 1   
    33    13    34 1   
@<TRIPOS>SUBSTRUCTURE
     1 HLG         1 TEMP              0 ****  ****    0 ROOT
