@<TRIPOS>MOLECULE
HLH
   39    40     1     0     0
SMALL
No Charge or Current Charge


@<TRIPOS>ATOM
      1 C01         -2.7620     1.6870     0.1120 c          1 HLH       0.593900
      2 C03         -1.4010     1.6490    -0.3830 cc         1 HLH      -0.384200
      3 C04         -0.7140     0.5270    -0.7800 cd         1 HLH       0.164800
      4 C06         -2.6940    -0.7470    -0.2350 ca         1 HLH       0.320000
      5 C07         -3.4200     0.3740     0.1780 ca         1 HLH      -0.207600
      6 C08         -4.7450     0.2410     0.6450 ca         1 HLH      -0.022000
      7 C09         -5.3450    -1.0270     0.6970 ca         1 HLH      -0.159000
      8 C10         -4.6240    -2.1580     0.2860 ca         1 HLH      -0.051000
      9 C11         -3.3060    -2.0120    -0.1770 ca         1 HLH      -0.181000
     10 C12          0.7060     0.5530    -1.2860 c3         1 HLH      -0.056200
     11 C13          1.7320     0.1710    -0.1950 c3         1 HLH      -0.075400
     12 C14          3.1920     0.2050    -0.6960 c3         1 HLH      -0.076400
     13 C15          4.2150    -0.1760     0.3970 c3         1 HLH      -0.075400
     14 C16          5.6750    -0.1410    -0.1040 c3         1 HLH      -0.075400
     15 C17          6.6980    -0.5220     0.9890 c3         1 HLH      -0.075400
     16 C18          8.1550    -0.4880     0.4900 c3         1 HLH      -0.089100
     17 N05         -1.3810    -0.7050    -0.7120 na         1 HLH      -0.793000
     18 O02         -3.3120     2.7280     0.4470 o          1 HLH      -0.572100
     19 H031        -0.9250     2.6200    -0.4220 ha         1 HLH       0.206000
     20 H081        -5.3100     1.1150     0.9660 ha         1 HLH       0.138000
     21 H091        -6.3660    -1.1330     1.0570 ha         1 HLH       0.120000
     22 H101        -5.0850    -3.1430     0.3250 ha         1 HLH       0.114000
     23 H111        -2.7570    -2.8950    -0.4940 ha         1 HLH       0.113000
     24 H122         0.8120    -0.1310    -2.1370 hc         1 HLH       0.061200
     25 H121         0.9460     1.5520    -1.6680 hc         1 HLH       0.061200
     26 H131         1.6240     0.8590     0.6530 hc         1 HLH       0.046200
     27 H132         1.5020    -0.8350     0.1790 hc         1 HLH       0.046200
     28 H142         3.2990    -0.4830    -1.5450 hc         1 HLH       0.039700
     29 H141         3.4220     1.2110    -1.0690 hc         1 HLH       0.039700
     30 H152         4.1080     0.5120     1.2450 hc         1 HLH       0.039700
     31 H151         3.9850    -1.1820     0.7690 hc         1 HLH       0.039700
     32 H162         5.7820    -0.8290    -0.9520 hc         1 HLH       0.037700
     33 H161         5.9050     0.8650    -0.4760 hc         1 HLH       0.037700
     34 H172         6.5960     0.1640     1.8380 hc         1 HLH       0.037200
     35 H171         6.4730    -1.5290     1.3620 hc         1 HLH       0.037200
     36 H181         8.8430    -0.7650     1.2980 hc         1 HLH       0.032033
     37 H183         8.2990    -1.1920    -0.3390 hc         1 HLH       0.032033
     38 H182         8.4230     0.5170     0.1410 hc         1 HLH       0.032033
     39 H051        -0.9150    -1.5630    -0.9980 hn         1 HLH       0.501000
@<TRIPOS>BOND
     1     1     2 1   
     2     1     5 1   
     3     1    18 2   
     4     2     3 2   
     5     2    19 1   
     6     3    10 1   
     7     3    17 1   
     8     4     5 ar  
     9     4     9 ar  
    10     4    17 1   
    11     5     6 ar  
    12     6     7 ar  
    13     6    20 1   
    14     7     8 ar  
    15     7    21 1   
    16     8     9 ar  
    17     8    22 1   
    18     9    23 1   
    19    10    11 1   
    20    10    24 1   
    21    10    25 1   
    22    11    12 1   
    23    11    26 1   
    24    11    27 1   
    25    12    13 1   
    26    12    28 1   
    27    12    29 1   
    28    13    14 1   
    29    13    30 1   
    30    13    31 1   
    31    14    15 1   
    32    14    32 1   
    33    14    33 1   
    34    15    16 1   
    35    15    34 1   
    36    15    35 1   
    37    16    36 1   
    38    16    37 1   
    39    16    38 1   
    40    17    39 1   
@<TRIPOS>SUBSTRUCTURE
     1 HLH         1 TEMP              0 ****  ****    0 ROOT
