@<TRIPOS>MOLECULE
HLH
   39    40     1     0     0
SMALL
bcc


@<TRIPOS>ATOM
      1 C01         -2.7470     1.7120     0.0500 c          1 HLH       0.593900
      2 C03         -1.4030     1.7600    -0.4520 cc         1 HLH      -0.334200
      3 C04         -0.7160     0.6360    -0.8040 cd         1 HLH       0.164800
      4 C06         -2.5660    -0.7570    -0.2250 ca         1 HLH       0.181600
      5 C07         -3.3200     0.3620     0.1530 ca         1 HLH      -0.207600
      6 C08         -4.6240     0.1650     0.6270 ca         1 HLH      -0.040000
      7 C09         -5.1590    -1.0990     0.7230 ca         1 HLH      -0.177000
      8 C10         -4.3930    -2.2070     0.3410 ca         1 HLH      -0.069000
      9 C11         -3.1110    -2.0460    -0.1300 ca         1 HLH      -0.199000
     10 C12          0.7010     0.6570    -1.2830 c3         1 HLH      -0.056200
     11 C13          1.6860     0.2200    -0.1940 c3         1 HLH      -0.075400
     12 C14          3.1270     0.2240    -0.6880 c3         1 HLH      -0.076400
     13 C15          4.1240    -0.1670     0.3950 c3         1 HLH      -0.075400
     14 C16          5.5670    -0.1800    -0.0950 c3         1 HLH      -0.075400
     15 C17          6.5650    -0.5760     0.9870 c3         1 HLH      -0.075400
     16 C18          8.0050    -0.5850     0.4920 c3         1 HLH      -0.089100
     17 N05         -1.2910    -0.5810    -0.6910 na         1 HLH      -0.599400
     18 O02         -3.3880     2.7160     0.3740 o          1 HLH      -0.572100
     19 H031        -0.9170     2.7210    -0.5570 ha         1 HLH       0.156000
     20 H081        -5.2070     1.0290     0.9180 ha         1 HLH       0.156000
     21 H091        -6.1660    -1.2400     1.0910 ha         1 HLH       0.138000
     22 H101        -4.8100    -3.2030     0.4160 ha         1 HLH       0.132000
     23 H111        -2.5190    -2.9050    -0.4240 ha         1 HLH       0.131000
     24 H122         0.7990     0.0010    -2.1530 hc         1 HLH       0.061200
     25 H121         0.9450     1.6680    -1.6140 hc         1 HLH       0.061200
     26 H131         1.5880     0.8900     0.6650 hc         1 HLH       0.046200
     27 H132         1.4260    -0.7810     0.1620 hc         1 HLH       0.046200
     28 H142         3.2200    -0.4650    -1.5350 hc         1 HLH       0.039700
     29 H141         3.3780     1.2180    -1.0730 hc         1 HLH       0.039700
     30 H152         4.0340     0.5270     1.2380 hc         1 HLH       0.039700
     31 H151         3.8640    -1.1560     0.7860 hc         1 HLH       0.039700
     32 H162         5.6570    -0.8710    -0.9400 hc         1 HLH       0.037700
     33 H161         5.8280     0.8110    -0.4830 hc         1 HLH       0.037700
     34 H172         6.4760     0.1150     1.8320 hc         1 HLH       0.037200
     35 H171         6.3040    -1.5650     1.3750 hc         1 HLH       0.037200
     36 H181         8.6970    -0.8720     1.2840 hc         1 HLH       0.032033
     37 H183         8.1370    -1.2890    -0.3320 hc         1 HLH       0.032033
     38 H182         8.3040     0.4010     0.1330 hc         1 HLH       0.032033
     39 H051        -0.7640    -1.3970    -0.9630 hn         1 HLH       0.445800
@<TRIPOS>BOND
     1     1     2 1   
     2     1     5 1   
     3     1    18 2   
     4     2     3 2   
     5     2    19 1   
     6     3    10 1   
     7     3    17 1   
     8     4     5 ar  
     9     4     9 ar  
    10     4    17 1   
    11     5     6 ar  
    12     6     7 ar  
    13     6    20 1   
    14     7     8 ar  
    15     7    21 1   
    16     8     9 ar  
    17     8    22 1   
    18     9    23 1   
    19    10    11 1   
    20    10    24 1   
    21    10    25 1   
    22    11    12 1   
    23    11    26 1   
    24    11    27 1   
    25    12    13 1   
    26    12    28 1   
    27    12    29 1   
    28    13    14 1   
    29    13    30 1   
    30    13    31 1   
    31    14    15 1   
    32    14    32 1   
    33    14    33 1   
    34    15    16 1   
    35    15    34 1   
    36    15    35 1   
    37    16    36 1   
    38    16    37 1   
    39    16    38 1   
    40    17    39 1   
@<TRIPOS>SUBSTRUCTURE
     1 HLH         1 TEMP              0 ****  ****    0 ROOT
