@<TRIPOS>MOLECULE
HLI
   49    52     1     0     0
SMALL
No Charge or Current Charge


@<TRIPOS>ATOM
      1 C1          -0.8410    -1.5630     0.4160 c3         1 HLI       0.140600
      2 N1          -1.6850     2.8740    -0.4750 nc         1 HLI      -0.687000
      3 O1          -4.0640    -0.7560     1.1510 o          1 HLI      -0.592000
      4 P1           5.2390     3.2270    -0.1280 p5         1 HLI       1.150000
      5 Cl1          0.8910    -8.1230    -0.6420 cl         1 HLI      -0.237000
      6 C2          -2.8380     1.0990     0.2950 cd         1 HLI      -0.397600
      7 N2          -1.4850     0.8710     0.5180 na         1 HLI      -0.146500
      8 O2           5.4890     4.6960    -0.0320 o          1 HLI      -0.916833
      9 C3          -2.8990     2.3120    -0.3060 cc         1 HLI       0.547000
     10 N3          -5.1520     0.9740     0.1910 ns         1 HLI      -0.452400
     11 O3           5.7990     2.6900    -1.4030 o          1 HLI      -0.916833
     12 C4          -0.8160     1.9980     0.0180 cd         1 HLI       0.607000
     13 N4          -4.0680     2.8980    -0.6840 nc         1 HLI      -0.721700
     14 O4           5.8960     2.5220     1.0110 o          1 HLI      -0.916833
     15 C5          -5.1350     2.1800    -0.4120 cd         1 HLI       0.691800
     16 N5          -6.3340     2.6930    -0.7590 nu         1 HLI      -0.931400
     17 O5          -0.1630    -2.5600     1.2020 os         1 HLI      -0.332100
     18 C6          -4.0380     0.3300     0.5990 c          1 HLI       0.622600
     19 C7           0.6430     2.2770     0.0220 ca         1 HLI      -0.255500
     20 C8          -0.9070    -0.2710     1.2540 c3         1 HLI       0.076600
     21 C9           1.5940     1.2550    -0.1990 ca         1 HLI      -0.115000
     22 C10          2.9690     1.5470    -0.2360 ca         1 HLI      -0.082500
     23 C11          3.4270     2.8680    -0.0750 ca         1 HLI      -0.053500
     24 C12          2.4840     3.8960     0.1120 ca         1 HLI      -0.082500
     25 C13          1.1090     3.6050     0.1470 ca         1 HLI      -0.115000
     26 C14         -6.5860     3.9850    -1.4240 c3         1 HLI       0.242100
     27 C15          0.0600    -3.8380     0.7340 ca         1 HLI       0.173100
     28 C16          0.7340    -4.7360     1.5790 ca         1 HLI      -0.164000
     29 C17          0.9910    -6.0540     1.1590 ca         1 HLI      -0.069000
     30 C18          0.5710    -6.4760    -0.1140 ca         1 HLI       0.071000
     31 C19         -0.1040    -5.5850    -0.9650 ca         1 HLI      -0.069000
     32 C20         -0.3610    -4.2660    -0.5450 ca         1 HLI      -0.164000
     33 H1          -0.2980    -1.3720    -0.5180 h1         1 HLI       0.052700
     34 H1A         -1.8570    -1.8900     0.1650 h1         1 HLI       0.052700
     35 HN3         -6.0230     0.5030     0.3650 hn         1 HLI       0.302500
     36 H8          -1.5210    -0.4590     2.1420 h1         1 HLI       0.089200
     37 H8A          0.0970    -0.0090     1.6080 h1         1 HLI       0.089200
     38 H9           1.2800     0.2300    -0.3650 ha         1 HLI       0.074000
     39 H10          3.6860     0.7460    -0.4010 ha         1 HLI       0.130500
     40 H12          2.8180     4.9250     0.2260 ha         1 HLI       0.130500
     41 H13          0.4050     4.4220     0.2900 ha         1 HLI       0.074000
     42 H14         -7.6630     4.1320    -1.5820 h1         1 HLI       0.038367
     43 H14A        -6.2110     4.8160    -0.8110 h1         1 HLI       0.038367
     44 H16          1.0580    -4.4080     2.5630 ha         1 HLI       0.131500
     45 H17          1.5130    -6.7450     1.8160 ha         1 HLI       0.119500
     46 H19         -0.4270    -5.9160    -1.9490 ha         1 HLI       0.119500
     47 H20         -0.8840    -3.5970    -1.2220 ha         1 HLI       0.131500
     48 H14B        -6.0870     4.0200    -2.4020 h1         1 HLI       0.038367
     49 HN5         -7.1360     2.1110    -0.5340 hn         1 HLI       0.483000
@<TRIPOS>BOND
     1     1    17 1   
     2     1    20 1   
     3     1    33 1   
     4     1    34 1   
     5     2     9 1   
     6     2    12 2   
     7     3    18 2   
     8     4     8 1   
     9     4    11 1   
    10     4    14 1   
    11     4    23 1   
    12     5    30 1   
    13     6     7 1   
    14     6     9 2   
    15     6    18 1   
    16     7    12 1   
    17     7    20 1   
    18     9    13 1   
    19    10    15 1   
    20    10    18 1   
    21    10    35 1   
    22    12    19 1   
    23    13    15 2   
    24    15    16 1   
    25    16    26 1   
    26    16    49 1   
    27    17    27 1   
    28    19    21 ar  
    29    19    25 ar  
    30    20    36 1   
    31    20    37 1   
    32    21    22 ar  
    33    21    38 1   
    34    22    23 ar  
    35    22    39 1   
    36    23    24 ar  
    37    24    25 ar  
    38    24    40 1   
    39    25    41 1   
    40    26    42 1   
    41    26    43 1   
    42    26    48 1   
    43    27    28 ar  
    44    27    32 ar  
    45    28    29 ar  
    46    28    44 1   
    47    29    30 ar  
    48    29    45 1   
    49    30    31 ar  
    50    31    32 ar  
    51    31    46 1   
    52    32    47 1   
@<TRIPOS>SUBSTRUCTURE
     1 HLI         1 TEMP              0 ****  ****    0 ROOT
