@<TRIPOS>MOLECULE
HLI
   49    52     1     0     0
SMALL
abcg2


@<TRIPOS>ATOM
      1 C1          -0.7650    -1.4950     0.3810 c3         1 HLI       0.140600
      2 N1          -1.6810     2.8350    -0.5660 nc         1 HLI      -0.687000
      3 O1          -3.9650    -0.7980     1.1720 o          1 HLI      -0.592000
      4 P1           5.2260     3.1230    -0.0260 p5         1 HLI       1.150000
      5 CL1          0.7760    -7.9630    -0.5560 cl         1 HLI      -0.237000
      6 C2          -2.7740     1.0630     0.2670 cd         1 HLI      -0.397600
      7 N2          -1.4210     0.8710     0.4510 na         1 HLI      -0.146500
      8 O2           5.3400     4.6420     0.1220 o          1 HLI      -0.916833
      9 C3          -2.9020     2.2890    -0.3630 cc         1 HLI       0.547000
     10 N3          -5.0730     0.9470     0.2140 ns         1 HLI      -0.452400
     11 O3           5.7410     2.5760    -1.3590 o          1 HLI      -0.916833
     12 C4          -0.8160     1.9670    -0.0710 cd         1 HLI       0.607000
     13 N4          -4.0700     2.8600    -0.7250 nc         1 HLI      -0.721700
     14 O4           5.7040     2.3370     1.1960 o          1 HLI      -0.916833
     15 C5          -5.1310     2.1640    -0.4160 cd         1 HLI       0.691800
     16 N5          -6.3520     2.6340    -0.7010 nu         1 HLI      -0.931400
     17 O5          -0.1080    -2.4460     1.1930 os         1 HLI      -0.332100
     18 C6          -3.9120     0.2890     0.6120 c          1 HLI       0.622600
     19 C7           0.6280     2.2070    -0.0630 ca         1 HLI      -0.255500
     20 C8          -0.8230    -0.2140     1.2000 c3         1 HLI       0.076600
     21 C9           1.5620     1.2250    -0.4030 ca         1 HLI      -0.115000
     22 C10          2.9160     1.5170    -0.4060 ca         1 HLI      -0.082500
     23 C11          3.3970     2.7850    -0.0720 ca         1 HLI      -0.053500
     24 C12          2.4520     3.7590     0.2480 ca         1 HLI      -0.082500
     25 C13          1.0920     3.4850     0.2480 ca         1 HLI      -0.115000
     26 C14         -6.5500     3.8800    -1.3990 c3         1 HLI       0.242100
     27 C15          0.0600    -3.6970     0.7250 ca         1 HLI       0.173100
     28 C16          0.7240    -4.5870     1.5710 ca         1 HLI      -0.164000
     29 C17          0.9440    -5.8940     1.1810 ca         1 HLI      -0.069000
     30 C18          0.5010    -6.3210    -0.0640 ca         1 HLI       0.071000
     31 C19         -0.1550    -5.4500    -0.9130 ca         1 HLI      -0.069000
     32 C20         -0.3780    -4.1350    -0.5210 ca         1 HLI      -0.164000
     33 H1          -0.2180    -1.3310    -0.5530 h1         1 HLI       0.052700
     34 H1A         -1.7750    -1.8270     0.1250 h1         1 HLI       0.052700
     35 HN3         -5.9390     0.4650     0.4180 hn         1 HLI       0.302500
     36 H8          -1.4050    -0.3760     2.1070 h1         1 HLI       0.089200
     37 H8A          0.1790     0.0890     1.5000 h1         1 HLI       0.089200
     38 H9           1.2340     0.2380    -0.7040 ha         1 HLI       0.074000
     39 H10          3.6130     0.7380    -0.6930 ha         1 HLI       0.130500
     40 H12          2.7910     4.7560     0.4990 ha         1 HLI       0.130500
     41 H13          0.3810     4.2630     0.4980 ha         1 HLI       0.074000
     42 H14         -7.6180     4.0750    -1.4410 h1         1 HLI       0.038367
     43 H14A        -6.0680     4.7070    -0.8800 h1         1 HLI       0.038367
     44 H16          1.0690    -4.2490     2.5400 ha         1 HLI       0.131500
     45 H17          1.4600    -6.5740     1.8450 ha         1 HLI       0.119500
     46 H19         -0.5020    -5.7810    -1.8820 ha         1 HLI       0.119500
     47 H20         -0.8970    -3.4770    -1.2060 ha         1 HLI       0.131500
     48 H14B        -6.1640     3.8450    -2.4190 h1         1 HLI       0.038367
     49 HN5         -7.1590     2.0640    -0.5100 hn         1 HLI       0.483000
@<TRIPOS>BOND
     1     1    17 1   
     2     1    20 1   
     3     1    33 1   
     4     1    34 1   
     5     2     9 1   
     6     2    12 2   
     7     3    18 2   
     8     4     8 1   
     9     4    11 1   
    10     4    14 1   
    11     4    23 1   
    12     5    30 1   
    13     6     7 1   
    14     6     9 2   
    15     6    18 1   
    16     7    12 1   
    17     7    20 1   
    18     9    13 1   
    19    10    15 1   
    20    10    18 1   
    21    10    35 1   
    22    12    19 1   
    23    13    15 2   
    24    15    16 1   
    25    16    26 1   
    26    16    49 1   
    27    17    27 1   
    28    19    21 ar  
    29    19    25 ar  
    30    20    36 1   
    31    20    37 1   
    32    21    22 ar  
    33    21    38 1   
    34    22    23 ar  
    35    22    39 1   
    36    23    24 ar  
    37    24    25 ar  
    38    24    40 1   
    39    25    41 1   
    40    26    42 1   
    41    26    43 1   
    42    26    48 1   
    43    27    28 ar  
    44    27    32 ar  
    45    28    29 ar  
    46    28    44 1   
    47    29    30 ar  
    48    29    45 1   
    49    30    31 ar  
    50    31    32 ar  
    51    31    46 1   
    52    32    47 1   
@<TRIPOS>SUBSTRUCTURE
     1 HLI         1 TEMP              0 ****  ****    0 ROOT
