@<TRIPOS>MOLECULE
HLJ
   56    59     1     0     0
SMALL
No Charge or Current Charge


@<TRIPOS>ATOM
      1 N1          -1.6070    -2.0530    -0.6640 ns         1 HLJ      -0.504900
      2 N3           5.7040    -1.0330    -0.6910 na         1 HLJ      -0.664400
      3 C4          -4.6440    -1.0900    -1.2460 ca         1 HLJ      -0.092000
      4 C5          -5.7460    -0.3180    -0.8370 ca         1 HLJ       0.115000
      5 C6          -6.2490    -0.4510     0.4740 ca         1 HLJ       0.122000
      6 C7          -5.6460    -1.3540     1.3660 ca         1 HLJ      -0.098000
      7 C8          -4.5440    -2.1240     0.9540 ca         1 HLJ      -0.082000
      8 C10          0.6330    -0.2730    -0.2570 ca         1 HLJ      -0.069000
      9 C13          0.6100     2.9130     0.0590 ca         1 HLJ       0.405300
     10 C15          1.2190     4.4420     1.6790 ca         1 HLJ       0.583200
     11 C17          2.3600     2.3220     1.6400 ca         1 HLJ      -0.039000
     12 C21          6.0640    -1.4420     0.5610 cc         1 HLJ       0.801100
     13 C24          6.5740     0.0000    -1.0800 cc         1 HLJ      -0.100000
     14 C1          -0.3650    -2.5010    -1.0500 c          1 HLJ       0.615700
     15 C11          1.7290     0.6050    -0.0840 cp         1 HLJ      -0.039000
     16 C12          1.5540     1.9530     0.5360 cp         1 HLJ      -0.112000
     17 C16          2.1840     3.5860     2.2180 ca         1 HLJ      -0.201000
     18 C18          3.0110     0.1690    -0.4840 ca         1 HLJ      -0.059000
     19 C19          3.2040    -1.1040    -1.0560 ca         1 HLJ      -0.126300
     20 C2          -2.8410    -2.8210    -0.8000 c3         1 HLJ       0.145300
     21 C23          7.4690     0.2050    -0.0460 cd         1 HLJ      -0.072000
     22 C25          2.0940    -1.9510    -1.2380 ca         1 HLJ      -0.042000
     23 C3          -4.0390    -1.9980    -0.3550 ca         1 HLJ      -0.104300
     24 C9           0.7980    -1.5520    -0.8410 ca         1 HLJ      -0.151600
     25 F1           1.0150     5.6680     2.2050 f          1 HLJ      -0.226200
     26 N2           0.4440     4.1310     0.6230 nb         1 HLJ      -0.717000
     27 N4           7.1250    -0.6990     0.9420 na         1 HLJ      -0.618400
     28 N5           5.4930    -2.3540     1.2490 n2         1 HLJ      -0.904100
     29 O1          -0.2220    -3.6130    -1.5390 o          1 HLJ      -0.593100
     30 Cl2         -7.6290     0.5030     1.0220 cl         1 HLJ      -0.169000
     31 H1          -1.6630    -1.1260    -0.2650 hn         1 HLJ       0.317500
     32 H2          -4.2600    -0.9790    -2.2570 ha         1 HLJ       0.129000
     33 H3          -6.0320    -1.4550     2.3770 ha         1 HLJ       0.135000
     34 H4          -4.0820    -2.8180     1.6550 ha         1 HLJ       0.136000
     35 H5          -0.3430     0.0590     0.0830 ha         1 HLJ       0.120000
     36 H6           3.0980     1.6310     2.0420 ha         1 HLJ       0.131000
     37 H7           4.7410    -1.2830    -2.5460 h1         1 HLJ       0.063700
     38 H8           4.6340    -2.6730    -1.4660 h1         1 HLJ       0.063700
     39 H9           8.6530    -0.1140     2.2950 h1         1 HLJ       0.045700
     40 H10          7.1200    -0.6200     3.0580 h1         1 HLJ       0.045700
     41 H11          8.2140    -1.8450     2.3510 h1         1 HLJ       0.045700
     42 H12          6.5040     0.5100    -2.0410 h4         1 HLJ       0.223000
     43 H13         -1.1940     2.1410    -0.8630 hc         1 HLJ       0.056700
     44 H14         -0.5730     3.6060    -1.6350 hc         1 HLJ       0.056700
     45 H15          0.2380     2.0650    -1.9080 hc         1 HLJ       0.056700
     46 H16          2.7780     3.9030     3.0690 ha         1 HLJ       0.146000
     47 H17          3.8580     0.8380    -0.3520 ha         1 HLJ       0.123000
     48 H18         -2.9660    -3.1200    -1.8500 h1         1 HLJ       0.069700
     49 H19         -2.7650    -3.7340    -0.1950 h1         1 HLJ       0.069700
     50 H20          8.2920     0.9150     0.0330 h4         1 HLJ       0.225000
     51 H21          2.2430    -2.9300    -1.6900 ha         1 HLJ       0.137000
     52 H22          4.7100    -2.6960     0.6850 hn         1 HLJ       0.388400
     53 Cl1         -6.4740     0.8090    -1.9830 cl         1 HLJ      -0.172000
     54 C20          4.5920    -1.5760    -1.4980 c3         1 HLJ       0.288100
     55 C14         -0.2770     2.6670    -1.1510 c3         1 HLJ      -0.149400
     56 C22          7.8200    -0.8270     2.2390 c3         1 HLJ       0.243100
@<TRIPOS>BOND
     1     1    14 1   
     2     1    20 1   
     3     1    31 1   
     4     2    12 1   
     5     2    13 1   
     6     2    54 1   
     7     3     4 ar  
     8     3    23 ar  
     9     3    32 1   
    10     4     5 ar  
    11     4    53 1   
    12     5     6 ar  
    13     5    30 1   
    14     6     7 ar  
    15     6    33 1   
    16     7    23 ar  
    17     7    34 1   
    18     8    15 ar  
    19     8    24 ar  
    20     8    35 1   
    21     9    16 ar  
    22     9    26 ar  
    23     9    55 1   
    24    10    17 ar  
    25    10    25 1   
    26    10    26 ar  
    27    11    16 ar  
    28    11    17 ar  
    29    11    36 1   
    30    12    27 1   
    31    12    28 2   
    32    13    21 2   
    33    13    42 1   
    34    14    24 1   
    35    14    29 2   
    36    15    16 1   
    37    15    18 ar  
    38    17    46 1   
    39    18    19 ar  
    40    18    47 1   
    41    19    22 ar  
    42    19    54 1   
    43    20    23 1   
    44    20    48 1   
    45    20    49 1   
    46    21    27 1   
    47    21    50 1   
    48    22    24 ar  
    49    22    51 1   
    50    27    56 1   
    51    28    52 1   
    52    37    54 1   
    53    38    54 1   
    54    39    56 1   
    55    40    56 1   
    56    41    56 1   
    57    43    55 1   
    58    44    55 1   
    59    45    55 1   
@<TRIPOS>SUBSTRUCTURE
     1 HLJ         1 TEMP              0 ****  ****    0 ROOT
