@<TRIPOS>MOLECULE
HLJ
   56    59     1     0     0
SMALL
bcc


@<TRIPOS>ATOM
      1 N1          -1.5300    -1.5460    -1.4610 ns         1 HLJ      -0.571900
      2 N3           5.4900    -1.1550    -0.4030 na         1 HLJ      -0.664400
      3 C4          -4.9560    -1.4370    -0.6210 ca         1 HLJ      -0.110000
      4 C5          -5.8070    -1.1480     0.4380 ca         1 HLJ       0.023400
      5 C6          -5.3960    -1.3770     1.7430 ca         1 HLJ       0.030400
      6 C7          -4.1320    -1.9020     1.9820 ca         1 HLJ      -0.116000
      7 C8          -3.2900    -2.1910     0.9250 ca         1 HLJ      -0.100000
      8 C10          0.6480     0.1620    -0.6150 ca         1 HLJ      -0.087000
      9 C13          0.7510     3.3160    -0.6620 ca         1 HLJ       0.470600
     10 C15          1.3340     4.9370     0.8170 ca         1 HLJ       0.648500
     11 C17          2.3450     2.8430     1.0590 ca         1 HLJ      -0.057000
     12 C21          5.4140    -1.8350     0.7900 cc         1 HLJ       0.801100
     13 C24          6.5200    -0.2230    -0.3530 cc         1 HLJ      -0.050000
     14 C1          -0.3560    -2.1010    -1.1130 c          1 HLJ       0.682700
     15 C11          1.7530     1.0030    -0.4990 cp         1 HLJ      -0.039000
     16 C12          1.6030     2.3990    -0.0360 cp         1 HLJ      -0.177300
     17 C16          2.2220     4.1410     1.5150 ca         1 HLJ      -0.284300
     18 C18          3.0150     0.4970    -0.7880 ca         1 HLJ      -0.077000
     19 C19          3.1860    -0.8270    -1.1820 ca         1 HLJ      -0.126300
     20 C2          -2.7750    -2.2730    -1.5430 c3         1 HLJ       0.145300
     21 C23          7.0900    -0.3250     0.8570 cd         1 HLJ      -0.022000
     22 C25          2.0770    -1.6500    -1.2860 ca         1 HLJ      -0.060000
     23 C3          -3.6940    -1.9620    -0.3890 ca         1 HLJ      -0.104300
     24 C9           0.8020    -1.1570    -1.0190 ca         1 HLJ      -0.151600
     25 F1           1.1610     6.2040     1.2070 f          1 HLJ      -0.226200
     26 N2           0.6360     4.5690    -0.2150 nb         1 HLJ      -0.717000
     27 N4           6.4160    -1.3090     1.5600 na         1 HLJ      -0.618400
     28 N5           4.6230    -2.7720     1.1830 n2         1 HLJ      -0.904100
     29 O1          -0.2140    -3.2940    -0.8870 o          1 HLJ      -0.593100
     30 CL2         -6.4330    -1.0200     3.0710 cl         1 HLJ      -0.077400
     31 H1          -1.5580    -0.5710    -1.7130 hn         1 HLJ       0.317500
     32 H2          -5.2870    -1.2460    -1.6330 ha         1 HLJ       0.147000
     33 H3          -3.8130    -2.0840     2.9990 ha         1 HLJ       0.153000
     34 H4          -2.3120    -2.6070     1.1340 ha         1 HLJ       0.154000
     35 H5          -0.3280     0.5360    -0.3330 ha         1 HLJ       0.138000
     36 H6           3.0150     2.1620     1.5680 ha         1 HLJ       0.149000
     37 H7           4.9740    -0.8540    -2.3670 h1         1 HLJ       0.063700
     38 H8           4.5120    -2.4190    -1.7370 h1         1 HLJ       0.063700
     39 H9           7.5110    -1.1740     3.3050 h1         1 HLJ       0.045700
     40 H10          5.8210    -1.6390     3.5380 h1         1 HLJ       0.045700
     41 H11          6.9800    -2.8130     2.9050 h1         1 HLJ       0.045700
     42 H12          6.7520     0.4180    -1.1850 h4         1 HLJ       0.173000
     43 H13         -1.0260     2.5290    -1.5760 hc         1 HLJ       0.056700
     44 H14         -0.2920     3.8740    -2.4340 hc         1 HLJ       0.056700
     45 H15          0.4340     2.2620    -2.5190 hc         1 HLJ       0.056700
     46 H16          2.7780     4.5100     2.3650 ha         1 HLJ       0.164000
     47 H17          3.8780     1.1500    -0.7130 ha         1 HLJ       0.141000
     48 H18         -3.2640    -2.0270    -2.4860 h1         1 HLJ       0.069700
     49 H19         -2.5500    -3.3390    -1.5670 h1         1 HLJ       0.069700
     50 H20          7.9200     0.2120     1.2820 h4         1 HLJ       0.175000
     51 H21          2.2010    -2.6850    -1.5820 ha         1 HLJ       0.155000
     52 H22          3.9460    -3.0080     0.4690 hn         1 HLJ       0.388400
     53 CL1         -7.3680    -0.4960     0.1100 cl         1 HLJ      -0.080400
     54 C20          4.5670    -1.3560    -1.4880 c3         1 HLJ       0.288100
     55 C14         -0.0710     2.9730    -1.8670 c3         1 HLJ      -0.149400
     56 C22          6.6930    -1.7610     2.8960 c3         1 HLJ       0.243100
@<TRIPOS>BOND
     1     1    14 1   
     2     1    20 1   
     3     1    31 1   
     4     2    12 1   
     5     2    13 1   
     6     2    54 1   
     7     3     4 ar  
     8     3    23 ar  
     9     3    32 1   
    10     4     5 ar  
    11     4    53 1   
    12     5     6 ar  
    13     5    30 1   
    14     6     7 ar  
    15     6    33 1   
    16     7    23 ar  
    17     7    34 1   
    18     8    15 ar  
    19     8    24 ar  
    20     8    35 1   
    21     9    16 ar  
    22     9    26 ar  
    23     9    55 1   
    24    10    17 ar  
    25    10    25 1   
    26    10    26 ar  
    27    11    16 ar  
    28    11    17 ar  
    29    11    36 1   
    30    12    27 1   
    31    12    28 2   
    32    13    21 2   
    33    13    42 1   
    34    14    24 1   
    35    14    29 2   
    36    15    16 1   
    37    15    18 ar  
    38    17    46 1   
    39    18    19 ar  
    40    18    47 1   
    41    19    22 ar  
    42    19    54 1   
    43    20    23 1   
    44    20    48 1   
    45    20    49 1   
    46    21    27 1   
    47    21    50 1   
    48    22    24 ar  
    49    22    51 1   
    50    27    56 1   
    51    28    52 1   
    52    37    54 1   
    53    38    54 1   
    54    39    56 1   
    55    40    56 1   
    56    41    56 1   
    57    43    55 1   
    58    44    55 1   
    59    45    55 1   
@<TRIPOS>SUBSTRUCTURE
     1 HLJ         1 TEMP              0 ****  ****    0 ROOT
