@<TRIPOS>MOLECULE
HLK
   31    32     1     0     0
SMALL
abcg2


@<TRIPOS>ATOM
      1 C10         -3.8380    -0.2320    -1.2240 ca         1 HLK      -0.065500
      2 C15         -3.6090    -0.1920     1.1600 ca         1 HLK      -0.065500
      3 C17          3.9740     1.2650     0.0310 c3         1 HLK       0.261700
      4 C02          2.4730    -2.0050     0.1200 ca         1 HLK       0.638900
      5 C04          2.8910     0.2220     0.0420 ca         1 HLK       0.327300
      6 C05          1.5700     0.5720    -0.0240 ca         1 HLK      -0.247000
      7 C06          0.6150    -0.4750    -0.0140 ca         1 HLK       0.396000
      8 C08         -1.7390    -1.1700    -0.2050 c3         1 HLK       0.273100
      9 C09         -3.0930    -0.5300    -0.0890 ca         1 HLK      -0.135300
     10 C11         -5.0800     0.3810    -1.1270 ca         1 HLK      -0.154500
     11 C12         -5.5600     0.6970     0.1280 ca         1 HLK       0.184000
     12 C14         -4.8470     0.4210     1.2800 ca         1 HLK      -0.154500
     13 C16          1.0890    -1.7810     0.0510 ca         1 HLK      -0.309000
     14 F13         -6.7610     1.2890     0.2350 f          1 HLK      -0.175000
     15 F18          4.7740     1.1240    -1.0340 f          1 HLK      -0.109000
     16 F19          3.4970     2.5120     0.0010 f          1 HLK      -0.109000
     17 F20          4.7540     1.1690     1.1150 f          1 HLK      -0.109000
     18 N03          3.3660    -1.0190     0.1160 nb         1 HLK      -0.750000
     19 N07         -0.7020    -0.1730    -0.0500 nu         1 HLK      -0.962200
     20 H101        -3.4510    -0.4840    -2.2040 ha         1 HLK       0.122000
     21 H151        -3.0440    -0.4150     2.0560 ha         1 HLK       0.122000
     22 H051         1.2460     1.6020    -0.0810 ha         1 HLK       0.138000
     23 H081        -1.6240    -1.9290     0.5740 h1         1 HLK       0.049700
     24 H082        -1.6520    -1.6890    -1.1670 h1         1 HLK       0.049700
     25 H111        -5.6600     0.6070    -2.0120 ha         1 HLK       0.136500
     26 H141        -5.2510     0.6750     2.2510 ha         1 HLK       0.136500
     27 H161         0.4170    -2.6280     0.0460 ha         1 HLK       0.122000
     28 H011         2.3440    -4.0110     0.4480 hn         1 HLK       0.475500
     29 H012         3.9170    -3.3860     0.4370 hn         1 HLK       0.475500
     30 H071        -0.9470     0.7730    -0.2920 hn         1 HLK       0.493000
     31 N01          2.9600    -3.2760     0.1460 nv         1 HLK      -1.054900
@<TRIPOS>BOND
     1     1     9 ar  
     2     1    10 ar  
     3     1    20 1   
     4     2     9 ar  
     5     2    12 ar  
     6     2    21 1   
     7     3     5 1   
     8     3    15 1   
     9     3    16 1   
    10     3    17 1   
    11     4    13 ar  
    12     4    18 ar  
    13     4    31 1   
    14     5     6 ar  
    15     5    18 ar  
    16     6     7 ar  
    17     6    22 1   
    18     7    13 ar  
    19     7    19 1   
    20     8     9 1   
    21     8    19 1   
    22     8    23 1   
    23     8    24 1   
    24    10    11 ar  
    25    10    25 1   
    26    11    12 ar  
    27    11    14 1   
    28    12    26 1   
    29    13    27 1   
    30    19    30 1   
    31    28    31 1   
    32    29    31 1   
@<TRIPOS>SUBSTRUCTURE
     1 HLK         1 TEMP              0 ****  ****    0 ROOT
