@<TRIPOS>MOLECULE
HLK
   31    32     1     0     0
SMALL
No Charge or Current Charge


@<TRIPOS>ATOM
      1 C10         -3.7440    -0.2260    -1.2410 ca         1 HLK      -0.065500
      2 C15         -3.7660    -0.1650     1.1950 ca         1 HLK      -0.065500
      3 C17          3.9590     1.3460    -0.0370 c3         1 HLK       0.261700
      4 C02          2.5130    -2.0680     0.0790 ca         1 HLK       0.638900
      5 C04          2.9420     0.1820     0.0010 ca         1 HLK       0.327300
      6 C05          1.5630     0.4580    -0.0140 ca         1 HLK      -0.247000
      7 C06          0.6530    -0.5970     0.0220 ca         1 HLK       0.396000
      8 C08         -1.8130    -1.2920     0.0220 c3         1 HLK       0.273100
      9 C09         -3.1380    -0.5450    -0.0080 ca         1 HLK      -0.135300
     10 C11         -4.9690     0.4650    -1.2670 ca         1 HLK      -0.154500
     11 C12         -5.5880     0.8370    -0.0650 ca         1 HLK       0.184000
     12 C14         -4.9910     0.5250     1.1660 ca         1 HLK      -0.154500
     13 C16          1.1400    -1.9000     0.0720 ca         1 HLK      -0.309000
     14 F13         -6.7650     1.5010    -0.0920 f          1 HLK      -0.175000
     15 F18          3.8110     2.1000    -1.1510 f          1 HLK      -0.109000
     16 F19          3.8020     2.1780     1.0200 f          1 HLK      -0.109000
     17 F20          5.2520     0.9360    -0.0160 f          1 HLK      -0.109000
     18 N03          3.4060    -1.0940     0.0500 nb         1 HLK      -0.750000
     19 N07         -0.7090    -0.3270     0.0090 nu         1 HLK      -0.962200
     20 H101        -3.2660    -0.5110    -2.1760 ha         1 HLK       0.122000
     21 H151        -3.3040    -0.4040     2.1520 ha         1 HLK       0.122000
     22 H051         1.2140     1.4850    -0.0530 ha         1 HLK       0.138000
     23 H081        -1.7630    -1.9160     0.9250 h1         1 HLK       0.049700
     24 H082        -1.7470    -1.9590    -0.8490 h1         1 HLK       0.049700
     25 H111        -5.4380     0.7110    -2.2170 ha         1 HLK       0.136500
     26 H141        -5.4770     0.8180     2.0930 ha         1 HLK       0.136500
     27 H161         0.4790    -2.7570     0.1010 ha         1 HLK       0.122000
     28 H011         2.5580    -4.0260     0.5150 hn         1 HLK       0.475500
     29 H012         4.0850    -3.2390     0.3720 hn         1 HLK       0.475500
     30 H071        -0.9700     0.6590    -0.0280 hn         1 HLK       0.493000
     31 N01          3.1020    -3.2610     0.1330 nv         1 HLK      -1.054900
@<TRIPOS>BOND
     1     1     9 ar  
     2     1    10 ar  
     3     1    20 1   
     4     2     9 ar  
     5     2    12 ar  
     6     2    21 1   
     7     3     5 1   
     8     3    15 1   
     9     3    16 1   
    10     3    17 1   
    11     4    13 ar  
    12     4    18 ar  
    13     4    31 1   
    14     5     6 ar  
    15     5    18 ar  
    16     6     7 ar  
    17     6    22 1   
    18     7    13 ar  
    19     7    19 1   
    20     8     9 1   
    21     8    19 1   
    22     8    23 1   
    23     8    24 1   
    24    10    11 ar  
    25    10    25 1   
    26    11    12 ar  
    27    11    14 1   
    28    12    26 1   
    29    13    27 1   
    30    19    30 1   
    31    28    31 1   
    32    29    31 1   
@<TRIPOS>SUBSTRUCTURE
     1 HLK         1 TEMP              0 ****  ****    0 ROOT
