@<TRIPOS>MOLECULE
HLL
   23    24     1     0     0
SMALL
No Charge or Current Charge


@<TRIPOS>ATOM
      1 C10         22.0330    11.6650     6.2880 c3         1 HLL       0.066600
      2 N11         20.6510    12.1330     6.0890 na         1 HLL       0.132800
      3 C12         20.0590    13.2420     6.6390 cc         1 HLL      -0.192000
      4 C13         18.7960    13.2200     6.1200 cd         1 HLL       0.192900
      5 C01         22.2230    13.1660    10.4000 cc         1 HLL       0.212900
      6 C02         22.8490    12.6310     9.3150 cd         1 HLL      -0.312000
      7 N03         21.9800    11.6770     8.8130 na         1 HLL      -0.160500
      8 C04         20.8350    11.6680     9.6350 cd         1 HLL       0.374000
      9 N05         21.0070    12.5910    10.5990 nc         1 HLL      -0.677000
     10 C06         19.5740    10.7900     9.5130 c          1 HLL       0.634500
     11 O07         19.4910     9.9510     8.6220 o          1 HLL      -0.690000
     12 O08         18.6620    10.9330    10.3250 o          1 HLL      -0.690000
     13 C09         22.2460    10.8770     7.5980 c3         1 HLL       0.055600
     14 N14         18.6680    12.1290     5.2840 nd         1 HLL      -0.365000
     15 N15         19.7950    11.4680     5.2620 nc         1 HLL      -0.206800
     16 H1          22.3140    11.0290     5.4390 h1         1 HLL       0.056200
     17 H2          22.6960    12.5380     6.2810 h1         1 HLL       0.056200
     18 H3          20.5540    13.9210     7.3200 h4         1 HLL       0.168000
     19 H4          17.9840    13.9150     6.2920 h4         1 HLL       0.039100
     20 H8          21.6370     9.9680     7.5870 h1         1 HLL       0.086700
     21 H9          23.2930    10.5500     7.6340 h1         1 HLL       0.086700
     22 H5          22.5750    13.9440    11.0640 h4         1 HLL       0.008100
     23 H6          23.8130    12.8570     8.8770 h4         1 HLL       0.123000
@<TRIPOS>BOND
     1     1     2 1   
     2     1    13 1   
     3     1    16 1   
     4     1    17 1   
     5     2     3 1   
     6     2    15 1   
     7     3     4 2   
     8     3    18 1   
     9     4    14 1   
    10     4    19 1   
    11     5     6 2   
    12     5     9 1   
    13     5    22 1   
    14     6     7 1   
    15     6    23 1   
    16     7     8 1   
    17     7    13 1   
    18     8     9 2   
    19     8    10 1   
    20    10    11 1   
    21    10    12 1   
    22    13    20 1   
    23    13    21 1   
    24    14    15 2   
@<TRIPOS>SUBSTRUCTURE
     1 HLL         1 TEMP              0 ****  ****    0 ROOT
