@<TRIPOS>MOLECULE
HLL
   23    24     1     0     0
SMALL
abcg2


@<TRIPOS>ATOM
      1 C10         22.0580    11.7050     6.3230 c3         1 HLL       0.066600
      2 N11         20.6950    12.1520     6.1420 na         1 HLL       0.132800
      3 C12         20.0850    13.2080     6.7050 cc         1 HLL      -0.192000
      4 C13         18.7880    13.1060     6.2780 cd         1 HLL       0.192900
      5 C01         22.1900    13.1560    10.3460 cc         1 HLL       0.212900
      6 C02         22.8320    12.5710     9.2940 cd         1 HLL      -0.312000
      7 N03         21.9560    11.6560     8.7850 na         1 HLL      -0.160500
      8 C04         20.8140    11.7260     9.5320 cd         1 HLL       0.374000
      9 N05         20.9470    12.6260    10.4830 nc         1 HLL      -0.677000
     10 C06         19.5600    10.8900     9.3400 c          1 HLL       0.634500
     11 O07         19.6030     9.9900     8.4810 o          1 HLL      -0.690000
     12 O08         18.6110    11.1920    10.0790 o          1 HLL      -0.690000
     13 C09         22.2380    10.8830     7.5930 c3         1 HLL       0.055600
     14 N14         18.6890    12.0090     5.4980 nd         1 HLL      -0.365000
     15 N15         19.8420    11.4390     5.4260 nc         1 HLL      -0.206800
     16 H1          22.3260    11.0990     5.4590 h1         1 HLL       0.056200
     17 H2          22.7060    12.5810     6.3300 h1         1 HLL       0.056200
     18 H3          20.5980    13.9250     7.3240 h4         1 HLL       0.168000
     19 H4          17.9500    13.7510     6.4820 h4         1 HLL       0.039100
     20 H8          21.5910    10.0130     7.5810 h1         1 HLL       0.086700
     21 H9          23.2750    10.5500     7.6330 h1         1 HLL       0.086700
     22 H5          22.5660    13.9220    11.0070 h4         1 HLL       0.008100
     23 H6          23.8160    12.7140     8.8760 h4         1 HLL       0.123000
@<TRIPOS>BOND
     1     1     2 1   
     2     1    13 1   
     3     1    16 1   
     4     1    17 1   
     5     2     3 1   
     6     2    15 1   
     7     3     4 2   
     8     3    18 1   
     9     4    14 1   
    10     4    19 1   
    11     5     6 2   
    12     5     9 1   
    13     5    22 1   
    14     6     7 1   
    15     6    23 1   
    16     7     8 1   
    17     7    13 1   
    18     8     9 2   
    19     8    10 1   
    20    10    11 1   
    21    10    12 1   
    22    13    20 1   
    23    13    21 1   
    24    14    15 2   
@<TRIPOS>SUBSTRUCTURE
     1 HLL         1 TEMP              0 ****  ****    0 ROOT
