@<TRIPOS>MOLECULE
HLN
   40    41     1     0     0
SMALL
No Charge or Current Charge


@<TRIPOS>ATOM
      1 CAA          7.9810     1.0260     0.7790 c3         1 HLN      -0.087100
      2 CAB          6.5390     0.6020     1.1180 c3         1 HLN      -0.075400
      3 CAC          5.7010     0.2540    -0.1310 c3         1 HLN      -0.077400
      4 CAD          4.2550    -0.1710     0.2090 c3         1 HLN      -0.073400
      5 CAE          3.4160    -0.5190    -1.0400 c3         1 HLN      -0.042400
      6 CAF          1.9710    -0.9430    -0.6910 c3         1 HLN      -0.431400
      7 PAG          0.9240    -1.3790    -2.1430 p5         1 HLN       1.394400
      8 OAH          1.4830    -2.5990    -2.8010 o          1 HLN      -0.809500
      9 OAI          0.8170    -0.2170    -3.0780 o          1 HLN      -0.809500
     10 OAJ         -0.4580    -1.7050    -1.3690 os         1 HLN      -0.488500
     11 CAR         -1.4030    -0.8450    -0.8610 ca         1 HLN       0.217100
     12 CAQ         -2.5730    -1.4170    -0.3360 ca         1 HLN      -0.163000
     13 CAK         -3.5850    -0.6070     0.2100 ca         1 HLN      -0.009000
     14 CAP         -4.7570    -1.1870     0.7320 ca         1 HLN      -0.097000
     15 CAO         -5.7650    -0.3710     1.2760 ca         1 HLN      -0.128000
     16 CAN         -5.6040     1.0240     1.3010 ca         1 HLN      -0.141000
     17 CAM         -4.4360     1.6080     0.7810 ca         1 HLN      -0.092000
     18 CAL         -3.4240     0.7960     0.2350 ca         1 HLN      -0.065000
     19 CAT         -2.2520     1.3730    -0.2850 ca         1 HLN      -0.110000
     20 CAS         -1.2430     0.5590    -0.8300 ca         1 HLN      -0.111000
     21 H1           8.5350     1.2630     1.6950 hc         1 HLN       0.024700
     22 H2           8.5100     0.2200     0.2570 hc         1 HLN       0.024700
     23 H3           7.9830     1.9160     0.1380 hc         1 HLN       0.024700
     24 H4           6.5710    -0.2660     1.7880 hc         1 HLN       0.031700
     25 H5           6.0490     1.4140     1.6700 hc         1 HLN       0.031700
     26 H6           5.6720     1.1240    -0.7990 hc         1 HLN       0.035700
     27 H7           6.1940    -0.5570    -0.6810 hc         1 HLN       0.035700
     28 H8           4.2840    -1.0410     0.8770 hc         1 HLN       0.027700
     29 H9           3.7620     0.6400     0.7590 hc         1 HLN       0.027700
     30 H10          3.3890     0.3510    -1.7080 hc         1 HLN       0.042200
     31 H11          3.9100    -1.3300    -1.5900 hc         1 HLN       0.042200
     32 H12          1.9830    -1.8240    -0.0420 hc         1 HLN       0.049700
     33 H13          1.4670    -0.1380    -0.1470 hc         1 HLN       0.049700
     34 H15         -2.6910    -2.4970    -0.3560 ha         1 HLN       0.132000
     35 H16         -4.8880    -2.2660     0.7170 ha         1 HLN       0.108000
     36 H17         -6.6690    -0.8220     1.6790 ha         1 HLN       0.094000
     37 H18         -6.3840     1.6540     1.7220 ha         1 HLN       0.093000
     38 H19         -4.3180     2.6890     0.8040 ha         1 HLN       0.097000
     39 H20         -2.1190     2.4520    -0.2660 ha         1 HLN       0.097000
     40 H21         -0.3490     1.0360    -1.2150 ha         1 HLN       0.130000
@<TRIPOS>BOND
     1     1     2 1   
     2     1    21 1   
     3     1    22 1   
     4     1    23 1   
     5     2     3 1   
     6     2    24 1   
     7     2    25 1   
     8     3     4 1   
     9     3    26 1   
    10     3    27 1   
    11     4     5 1   
    12     4    28 1   
    13     4    29 1   
    14     5     6 1   
    15     5    30 1   
    16     5    31 1   
    17     6     7 1   
    18     6    32 1   
    19     6    33 1   
    20     7     8 1   
    21     7     9 1   
    22     7    10 1   
    23    10    11 1   
    24    11    12 ar  
    25    11    20 ar  
    26    12    13 ar  
    27    12    34 1   
    28    13    14 ar  
    29    13    18 ar  
    30    14    15 ar  
    31    14    35 1   
    32    15    16 ar  
    33    15    36 1   
    34    16    17 ar  
    35    16    37 1   
    36    17    18 ar  
    37    17    38 1   
    38    18    19 ar  
    39    19    20 ar  
    40    19    39 1   
    41    20    40 1   
@<TRIPOS>SUBSTRUCTURE
     1 HLN         1 TEMP              0 ****  ****    0 ROOT
