@<TRIPOS>MOLECULE
HLN
   40    41     1     0     0
SMALL
abcg2


@<TRIPOS>ATOM
      1 CAA          8.6780    -0.2460    -0.4800 c3         1 HLN      -0.087100
      2 CAB          7.4310    -0.0700     0.3750 c3         1 HLN      -0.075400
      3 CAC          6.1420    -0.1820    -0.4300 c3         1 HLN      -0.077400
      4 CAD          4.8880     0.0050     0.4140 c3         1 HLN      -0.073400
      5 CAE          3.6000    -0.1170    -0.3900 c3         1 HLN      -0.042400
      6 CAF          2.3530     0.1000     0.4640 c3         1 HLN      -0.431400
      7 PAG          0.8270    -0.0510    -0.5170 p5         1 HLN       1.394400
      8 OAH          0.5940    -1.4750    -0.9390 o          1 HLN      -0.809500
      9 OAI          0.7270     1.0520    -1.5340 o          1 HLN      -0.809500
     10 OAJ         -0.2570     0.3010     0.7380 os         1 HLN      -0.488500
     11 CAR         -1.5740     0.4080     0.4380 ca         1 HLN       0.217100
     12 CAQ         -2.4010    -0.6840     0.4990 ca         1 HLN      -0.163000
     13 CAK         -3.7840    -0.5540     0.2400 ca         1 HLN      -0.009000
     14 CAP         -4.6640    -1.6610     0.3110 ca         1 HLN      -0.097000
     15 CAO         -6.0000    -1.5100     0.0550 ca         1 HLN      -0.128000
     16 CAN         -6.5250    -0.2460    -0.2850 ca         1 HLN      -0.141000
     17 CAM         -5.6980     0.8420    -0.3640 ca         1 HLN      -0.092000
     18 CAL         -4.3130     0.7170    -0.1050 ca         1 HLN      -0.065000
     19 CAT         -3.4320     1.8220    -0.1730 ca         1 HLN      -0.110000
     20 CAS         -2.0980     1.6740     0.0830 ca         1 HLN      -0.111000
     21 H1           9.5890    -0.1760     0.1160 hc         1 HLN       0.024700
     22 H2           8.6830    -1.2200    -0.9740 hc         1 HLN       0.024700
     23 H3           8.7350     0.5160    -1.2600 hc         1 HLN       0.024700
     24 H4           7.4260    -0.8190     1.1730 hc         1 HLN       0.031700
     25 H5           7.4620     0.9030     0.8750 hc         1 HLN       0.031700
     26 H6           6.1520     0.5610    -1.2350 hc         1 HLN       0.035700
     27 H7           6.1070    -1.1600    -0.9220 hc         1 HLN       0.035700
     28 H8           4.8800    -0.7330     1.2240 hc         1 HLN       0.027700
     29 H9           4.9190     0.9870     0.9000 hc         1 HLN       0.027700
     30 H10          3.6120     0.6100    -1.2080 hc         1 HLN       0.042200
     31 H11          3.5580    -1.1040    -0.8600 hc         1 HLN       0.042200
     32 H12          2.3320    -0.6270     1.2820 hc         1 HLN       0.049700
     33 H13          2.3890     1.0910     0.9240 hc         1 HLN       0.049700
     34 H15         -1.9980    -1.6520     0.7700 ha         1 HLN       0.132000
     35 H16         -4.2650    -2.6330     0.5740 ha         1 HLN       0.108000
     36 H17         -6.6630    -2.3640     0.1140 ha         1 HLN       0.094000
     37 H18         -7.5840    -0.1400    -0.4830 ha         1 HLN       0.093000
     38 H19         -6.0960     1.8150    -0.6280 ha         1 HLN       0.097000
     39 H20         -3.8270     2.7950    -0.4390 ha         1 HLN       0.097000
     40 H21         -1.4290     2.5230     0.0340 ha         1 HLN       0.130000
@<TRIPOS>BOND
     1     1     2 1   
     2     1    21 1   
     3     1    22 1   
     4     1    23 1   
     5     2     3 1   
     6     2    24 1   
     7     2    25 1   
     8     3     4 1   
     9     3    26 1   
    10     3    27 1   
    11     4     5 1   
    12     4    28 1   
    13     4    29 1   
    14     5     6 1   
    15     5    30 1   
    16     5    31 1   
    17     6     7 1   
    18     6    32 1   
    19     6    33 1   
    20     7     8 1   
    21     7     9 1   
    22     7    10 1   
    23    10    11 1   
    24    11    12 ar  
    25    11    20 ar  
    26    12    13 ar  
    27    12    34 1   
    28    13    14 ar  
    29    13    18 ar  
    30    14    15 ar  
    31    14    35 1   
    32    15    16 ar  
    33    15    36 1   
    34    16    17 ar  
    35    16    37 1   
    36    17    18 ar  
    37    17    38 1   
    38    18    19 ar  
    39    19    20 ar  
    40    19    39 1   
    41    20    40 1   
@<TRIPOS>SUBSTRUCTURE
     1 HLN         1 TEMP              0 ****  ****    0 ROOT
