@<TRIPOS>MOLECULE
HLP
   21    22     1     0     0
SMALL
abcg2


@<TRIPOS>ATOM
      1 N1           2.2790    -2.0610    -4.8760 na         1 HLP      -0.166500
      2 C4           3.5710    -1.5940    -5.3780 c3         1 HLP       0.068300
      3 C5           1.9980    -3.3180    -4.3910 cc         1 HLP      -0.219000
      4 C6           0.6630    -3.3050    -4.0860 cd         1 HLP       0.212900
      5 C7           1.1210    -1.3530    -4.8510 cc         1 HLP       0.404400
      6 C8           4.9540    -3.0880    -7.0100 cc         1 HLP      -0.166000
      7 C2           3.6960    -2.6520    -8.8180 cd         1 HLP       0.151500
      8 C3           3.9530    -2.2350    -6.6630 cd         1 HLP       0.021300
      9 C9           4.7890    -3.3540    -8.4030 cc         1 HLP      -0.223000
     10 N2           0.1210    -2.0700    -4.3760 nd         1 HLP      -0.693000
     11 O1           3.5570    -3.1670   -11.0900 o          1 HLP      -0.695000
     12 O2           1.9920    -1.8060   -10.2120 o          1 HLP      -0.695000
     13 O3           3.1800    -1.9590    -7.7490 os         1 HLP      -0.216000
     14 H42          4.3400    -1.8070    -4.6370 h1         1 HLP       0.058200
     15 H41          3.4970    -0.5110    -5.4900 h1         1 HLP       0.058200
     16 H51          2.7540    -4.0790    -4.3140 h4         1 HLP       0.152000
     17 H61          0.0680    -4.1050    -3.6740 h4         1 HLP       0.024100
     18 H71          1.0720    -0.3290    -5.1870 h5         1 HLP       0.053100
     19 H81          5.7100    -3.4780    -6.3480 ha         1 HLP       0.110000
     20 H91          5.3990    -3.9880    -9.0240 ha         1 HLP       0.140000
     21 C1           3.0170    -2.5260   -10.1530 c          1 HLP       0.619500
@<TRIPOS>BOND
     1     1     2 1   
     2     1     3 1   
     3     1     5 1   
     4     2     8 1   
     5     2    14 1   
     6     2    15 1   
     7     3     4 2   
     8     3    16 1   
     9     4    10 1   
    10     4    17 1   
    11     5    10 2   
    12     5    18 1   
    13     6     8 2   
    14     6     9 1   
    15     6    19 1   
    16     7     9 2   
    17     7    13 1   
    18     7    21 1   
    19     8    13 1   
    20     9    20 1   
    21    11    21 1   
    22    12    21 1   
@<TRIPOS>SUBSTRUCTURE
     1 HLP         1 TEMP              0 ****  ****    0 ROOT
