@<TRIPOS>MOLECULE
HLP
   21    22     1     0     0
SMALL
No Charge or Current Charge


@<TRIPOS>ATOM
      1 N1           2.2910    -2.2250    -4.8140 na         1 HLP      -0.166500
      2 C4           3.5290    -1.7140    -5.4210 c3         1 HLP       0.068300
      3 C5           2.1750    -2.8670    -3.6000 cc         1 HLP      -0.219000
      4 C6           0.8420    -3.1530    -3.4610 cd         1 HLP       0.212900
      5 C7           1.0270    -2.1490    -5.3620 cc         1 HLP       0.404400
      6 C8           4.4520    -3.4210    -7.1530 cc         1 HLP      -0.166000
      7 C2           3.7560    -2.3410    -8.9730 cd         1 HLP       0.151500
      8 C3           3.8060    -2.2700    -6.7930 cd         1 HLP       0.021300
      9 C9           4.4220    -3.4700    -8.5590 cc         1 HLP      -0.223000
     10 N2           0.1310    -2.7050    -4.5560 nd         1 HLP      -0.693000
     11 O1           3.8450    -2.6650   -11.3080 o          1 HLP      -0.695000
     12 O2           2.8550    -0.8960   -10.6070 o          1 HLP      -0.695000
     13 O3           3.3580    -1.5720    -7.8930 os         1 HLP      -0.216000
     14 H42          4.3730    -1.9580    -4.7630 h1         1 HLP       0.058200
     15 H41          3.4610    -0.6210    -5.4830 h1         1 HLP       0.058200
     16 H51          3.0140    -3.0690    -2.9460 h4         1 HLP       0.152000
     17 H61          0.3540    -3.6550    -2.6350 h4         1 HLP       0.024100
     18 H71          0.8340    -1.6860    -6.3240 h5         1 HLP       0.053100
     19 H81          4.8990    -4.1600    -6.4950 ha         1 HLP       0.110000
     20 H91          4.8430    -4.2500    -9.1840 ha         1 HLP       0.140000
     21 C1           3.4640    -1.9380   -10.3970 c          1 HLP       0.619500
@<TRIPOS>BOND
     1     1     2 1   
     2     1     3 1   
     3     1     5 1   
     4     2     8 1   
     5     2    14 1   
     6     2    15 1   
     7     3     4 2   
     8     3    16 1   
     9     4    10 1   
    10     4    17 1   
    11     5    10 2   
    12     5    18 1   
    13     6     8 2   
    14     6     9 1   
    15     6    19 1   
    16     7     9 2   
    17     7    13 1   
    18     7    21 1   
    19     8    13 1   
    20     9    20 1   
    21    11    21 1   
    22    12    21 1   
@<TRIPOS>SUBSTRUCTURE
     1 HLP         1 TEMP              0 ****  ****    0 ROOT
