@<TRIPOS>MOLECULE
HLQ
   37    38     1     0     0
SMALL
abcg2


@<TRIPOS>ATOM
      1 C10          0.6980     0.9410     0.1510 c3         1 HLQ       0.226800
      2 C13         -2.6820    -0.6760     0.0430 ca         1 HLQ      -0.252000
      3 C17         -2.1160     1.6600     0.0260 ca         1 HLQ      -0.312000
      4 C01          6.3400    -0.3890    -1.2910 ca         1 HLQ      -0.149000
      5 C02          5.1220     0.2720    -1.2050 ca         1 HLQ      -0.080500
      6 C03          4.5350     0.5540     0.0260 ca         1 HLQ      -0.100300
      7 C04          5.2010     0.1510     1.1810 ca         1 HLQ      -0.080500
      8 C05          6.4190    -0.5110     1.1200 ca         1 HLQ      -0.149000
      9 C06          6.9670    -0.7710    -0.1210 ca         1 HLQ       0.172000
     10 C08          3.1970     1.2350     0.1050 c3         1 HLQ      -0.024100
     11 C09          2.0410     0.2360     0.0630 c3         1 HLQ      -0.093400
     12 C12         -1.6880     0.3350     0.0530 ca         1 HLQ       0.405000
     13 C14         -3.9890    -0.2750    -0.0030 ca         1 HLQ       0.328300
     14 C16         -3.4900     1.9360    -0.0160 ca         1 HLQ       0.638900
     15 C19         -5.1100    -1.2780    -0.0260 c3         1 HLQ       0.260700
     16 F07          8.1480    -1.4100    -0.1930 f          1 HLQ      -0.178000
     17 F20         -5.9210    -1.1290     1.0290 f          1 HLQ      -0.109333
     18 F21         -5.8680    -1.1350    -1.1210 f          1 HLQ      -0.109333
     19 F22         -4.6770    -2.5430    -0.0130 f          1 HLQ      -0.109333
     20 N11         -0.3860    -0.0090     0.0750 nu         1 HLQ      -0.970200
     21 N15         -4.4200     0.9840    -0.0330 nb         1 HLQ      -0.751000
     22 N18         -3.9310     3.2240     0.0070 nv         1 HLQ      -1.054900
     23 H101         0.6460     1.5220     1.0810 h1         1 HLQ       0.042200
     24 H102         0.6120     1.6590    -0.6710 h1         1 HLQ       0.042200
     25 H131        -2.3970    -1.7190     0.0620 ha         1 HLQ       0.136000
     26 H171        -1.4120     2.4800     0.0450 ha         1 HLQ       0.122000
     27 H021         4.6280     0.5770    -2.1190 ha         1 HLQ       0.116000
     28 H041         4.7670     0.3610     2.1510 ha         1 HLQ       0.116000
     29 H051         6.9330    -0.8140     2.0230 ha         1 HLQ       0.133000
     30 H081         3.1360     1.8210     1.0260 hc         1 HLQ       0.050200
     31 H082         3.0910     1.9420    -0.7210 hc         1 HLQ       0.050200
     32 H091         2.1420    -0.4720     0.8910 hc         1 HLQ       0.052700
     33 H092         2.0900    -0.3450    -0.8620 hc         1 HLQ       0.052700
     34 H111        -0.1650    -0.9810     0.2230 hn         1 HLQ       0.494000
     35 H181        -3.2910     3.9460    -0.2770 hn         1 HLQ       0.474500
     36 H182        -4.8850     3.3780    -0.2740 hn         1 HLQ       0.474500
     37 H011         6.7920    -0.5990    -2.2510 ha         1 HLQ       0.133000
@<TRIPOS>BOND
     1     1    11 1   
     2     1    20 1   
     3     1    23 1   
     4     1    24 1   
     5     2    12 ar  
     6     2    13 ar  
     7     2    25 1   
     8     3    12 ar  
     9     3    14 ar  
    10     3    26 1   
    11     4     5 ar  
    12     4     9 ar  
    13     4    37 1   
    14     5     6 ar  
    15     5    27 1   
    16     6     7 ar  
    17     6    10 1   
    18     7     8 ar  
    19     7    28 1   
    20     8     9 ar  
    21     8    29 1   
    22     9    16 1   
    23    10    11 1   
    24    10    30 1   
    25    10    31 1   
    26    11    32 1   
    27    11    33 1   
    28    12    20 1   
    29    13    15 1   
    30    13    21 ar  
    31    14    21 ar  
    32    14    22 1   
    33    15    17 1   
    34    15    18 1   
    35    15    19 1   
    36    20    34 1   
    37    22    35 1   
    38    22    36 1   
@<TRIPOS>SUBSTRUCTURE
     1 HLQ         1 TEMP              0 ****  ****    0 ROOT
