@<TRIPOS>MOLECULE
HLQ
   37    38     1     0     0
SMALL
No Charge or Current Charge


@<TRIPOS>ATOM
      1 C10          0.7300     1.1000     0.0710 c3         1 HLQ       0.226800
      2 C13         -2.6890    -0.5690    -0.0160 ca         1 HLQ      -0.252000
      3 C17         -2.2070     1.7740     0.1310 ca         1 HLQ      -0.312000
      4 C01          6.4190    -0.4730    -1.3020 ca         1 HLQ      -0.149000
      5 C02          5.2090     0.2410    -1.2420 ca         1 HLQ      -0.080500
      6 C03          4.6070     0.5120     0.0030 ca         1 HLQ      -0.100300
      7 C04          5.2240     0.0600     1.1870 ca         1 HLQ      -0.080500
      8 C05          6.4340    -0.6540     1.1260 ca         1 HLQ      -0.149000
      9 C06          7.0270    -0.9170    -0.1180 ca         1 HLQ       0.172000
     10 C08          3.2940     1.2810     0.0680 c3         1 HLQ      -0.024100
     11 C09          2.0700     0.3430     0.0060 c3         1 HLQ      -0.093400
     12 C12         -1.7530     0.4620     0.0420 ca         1 HLQ       0.405000
     13 C14         -4.0610    -0.2600     0.0170 ca         1 HLQ       0.328300
     14 C16         -3.5750     1.9750     0.1610 ca         1 HLQ       0.638900
     15 C19         -5.1070    -1.3970    -0.0470 c3         1 HLQ       0.260700
     16 F07          8.1900    -1.6040    -0.1760 f          1 HLQ      -0.178000
     17 F20         -6.3890    -0.9560    -0.0090 f          1 HLQ      -0.109333
     18 F21         -4.9830    -2.1230    -1.1840 f          1 HLQ      -0.109333
     19 F22         -4.9650    -2.2620     0.9840 f          1 HLQ      -0.109333
     20 N11         -0.3970     0.1580     0.0080 nu         1 HLQ      -0.970200
     21 N15         -4.4920     1.0250     0.1050 nb         1 HLQ      -0.751000
     22 N18         -4.1340     3.1810     0.2370 nv         1 HLQ      -1.054900
     23 H101         0.6850     1.6760     1.0060 h1         1 HLQ       0.042200
     24 H102         0.6740     1.8090    -0.7680 h1         1 HLQ       0.042200
     25 H131        -2.3660    -1.6030    -0.0860 ha         1 HLQ       0.136000
     26 H171        -1.5240     2.6130     0.1790 ha         1 HLQ       0.122000
     27 H021         4.7390     0.5820    -2.1620 ha         1 HLQ       0.116000
     28 H041         4.7650     0.2600     2.1540 ha         1 HLQ       0.116000
     29 H051         6.9100    -1.0030     2.0380 ha         1 HLQ       0.133000
     30 H081         3.2490     1.8720     0.9920 hc         1 HLQ       0.050200
     31 H082         3.2380     2.0020    -0.7570 hc         1 HLQ       0.050200
     32 H091         2.1240    -0.3700     0.8380 hc         1 HLQ       0.052700
     33 H092         2.1130    -0.2390    -0.9230 hc         1 HLQ       0.052700
     34 H111        -0.1690    -0.8350    -0.0590 hn         1 HLQ       0.494000
     35 H181        -3.5750     3.9680    -0.0730 hn         1 HLQ       0.474500
     36 H182        -5.1200     3.2080     0.0110 hn         1 HLQ       0.474500
     37 H011         6.8850    -0.6820    -2.2610 ha         1 HLQ       0.133000
@<TRIPOS>BOND
     1     1    11 1   
     2     1    20 1   
     3     1    23 1   
     4     1    24 1   
     5     2    12 ar  
     6     2    13 ar  
     7     2    25 1   
     8     3    12 ar  
     9     3    14 ar  
    10     3    26 1   
    11     4     5 ar  
    12     4     9 ar  
    13     4    37 1   
    14     5     6 ar  
    15     5    27 1   
    16     6     7 ar  
    17     6    10 1   
    18     7     8 ar  
    19     7    28 1   
    20     8     9 ar  
    21     8    29 1   
    22     9    16 1   
    23    10    11 1   
    24    10    30 1   
    25    10    31 1   
    26    11    32 1   
    27    11    33 1   
    28    12    20 1   
    29    13    15 1   
    30    13    21 ar  
    31    14    21 ar  
    32    14    22 1   
    33    15    17 1   
    34    15    18 1   
    35    15    19 1   
    36    20    34 1   
    37    22    35 1   
    38    22    36 1   
@<TRIPOS>SUBSTRUCTURE
     1 HLQ         1 TEMP              0 ****  ****    0 ROOT
