@<TRIPOS>MOLECULE
HLR
   16    17     1     0     0
SMALL
No Charge or Current Charge


@<TRIPOS>ATOM
      1 C1          -0.1310    -0.4350    -0.0380 ca         1 HLR      -0.272900
      2 C2           0.7180    -1.5520    -0.0330 ca         1 HLR      -0.030000
      3 C3           2.1080    -1.3050     0.0130 ca         1 HLR      -0.150000
      4 C4           2.6030     0.0230     0.0500 ca         1 HLR      -0.062000
      5 C5           1.7110     1.1180     0.0420 ca         1 HLR      -0.124000
      6 C6           0.3390     0.8410    -0.0040 ca         1 HLR       0.099100
      7 C           -1.5400    -0.2870    -0.0800 cc         1 HLR       0.585800
      8 N1          -1.9270     0.9790    -0.0720 nd         1 HLR      -0.374700
      9 N2          -2.4150    -1.3110    -0.1100 nv         1 HLR      -0.989200
     10 O7          -0.6870     1.7550    -0.0220 os         1 HLR      -0.114100
     11 H2           0.3290    -2.5670    -0.0650 ha         1 HLR       0.119000
     12 H3           2.8040    -2.1410     0.0180 ha         1 HLR       0.119000
     13 H4           3.6760     0.2000     0.0850 ha         1 HLR       0.118000
     14 H5           2.0740     2.1420     0.0690 ha         1 HLR       0.138000
     15 H21N        -2.0730    -2.2200     0.1780 hn         1 HLR       0.469000
     16 H22N        -3.3810    -1.0960     0.1110 hn         1 HLR       0.469000
@<TRIPOS>BOND
     1     1     2 ar  
     2     1     6 ar  
     3     1     7 1   
     4     2     3 ar  
     5     2    11 1   
     6     3     4 ar  
     7     3    12 1   
     8     4     5 ar  
     9     4    13 1   
    10     5     6 ar  
    11     5    14 1   
    12     6    10 1   
    13     7     8 2   
    14     7     9 1   
    15     8    10 1   
    16     9    15 1   
    17     9    16 1   
@<TRIPOS>SUBSTRUCTURE
     1 HLR         1 TEMP              0 ****  ****    0 ROOT
