@<TRIPOS>MOLECULE
HLR
   16    17     1     0     0
SMALL
abcg2


@<TRIPOS>ATOM
      1 C1          -0.1160    -0.4840    -0.0250 ca         1 HLR      -0.272900
      2 C2           0.7640    -1.5640    -0.0270 ca         1 HLR      -0.030000
      3 C3           2.1160    -1.2830     0.0070 ca         1 HLR      -0.150000
      4 C4           2.5780     0.0430     0.0400 ca         1 HLR      -0.062000
      5 C5           1.7130     1.1220     0.0390 ca         1 HLR      -0.124000
      6 C6           0.3580     0.8170     0.0050 ca         1 HLR       0.099100
      7 C           -1.5440    -0.3080    -0.0560 cc         1 HLR       0.585800
      8 N1          -1.8550     0.9550    -0.0400 nd         1 HLR      -0.374700
      9 N2          -2.4670    -1.2980    -0.1570 nv         1 HLR      -0.989200
     10 O7          -0.6670     1.6780    -0.0090 os         1 HLR      -0.114100
     11 H2           0.4090    -2.5860    -0.0550 ha         1 HLR       0.119000
     12 H3           2.8350    -2.0910     0.0070 ha         1 HLR       0.119000
     13 H4           3.6440     0.2260     0.0650 ha         1 HLR       0.118000
     14 H5           2.0720     2.1420     0.0630 ha         1 HLR       0.138000
     15 H21N        -2.2110    -2.1850     0.2440 hn         1 HLR       0.469000
     16 H22N        -3.4220    -1.0410     0.0420 hn         1 HLR       0.469000
@<TRIPOS>BOND
     1     1     2 ar  
     2     1     6 ar  
     3     1     7 1   
     4     2     3 ar  
     5     2    11 1   
     6     3     4 ar  
     7     3    12 1   
     8     4     5 ar  
     9     4    13 1   
    10     5     6 ar  
    11     5    14 1   
    12     6    10 1   
    13     7     8 2   
    14     7     9 1   
    15     8    10 1   
    16     9    15 1   
    17     9    16 1   
@<TRIPOS>SUBSTRUCTURE
     1 HLR         1 TEMP              0 ****  ****    0 ROOT
