@<TRIPOS>MOLECULE
HLT
    8     7     1     0     0
SMALL
bcc


@<TRIPOS>ATOM
      1 F1           0.2090    -0.3950    -2.4260 f          1 HLT      -0.215967
      2 C2           0.5900     0.0150    -1.2180 c3         1 HLT       0.678900
      3 F2           1.8440    -0.3870    -1.0260 f          1 HLT      -0.215967
      4 F3           0.5740     1.3440    -1.2120 f          1 HLT      -0.215967
      5 C1          -0.3310    -0.5750    -0.1540 c3         1 HLT      -0.005900
      6 BR           0.2430    -0.0210     1.6030 br         1 HLT      -0.066400
      7 CL          -1.9830    -0.0540    -0.4700 cl         1 HLT      -0.089400
      8 HC1         -0.2940    -1.6640    -0.1980 h2         1 HLT       0.130700
@<TRIPOS>BOND
     1     1     2 1   
     2     2     3 1   
     3     2     4 1   
     4     2     5 1   
     5     5     6 1   
     6     5     7 1   
     7     5     8 1   
@<TRIPOS>SUBSTRUCTURE
     1 HLT         1 TEMP              0 ****  ****    0 ROOT
