@<TRIPOS>MOLECULE
HLT
    8     7     1     0     0
SMALL
No Charge or Current Charge


@<TRIPOS>ATOM
      1 F1           0.2340    -0.3960    -2.4790 f          1 HLT      -0.094667
      2 C2           0.6100     0.0120    -1.2450 c3         1 HLT       0.315000
      3 F2           1.8840    -0.3960    -1.0470 f          1 HLT      -0.094667
      4 F3           0.5980     1.3660    -1.2320 f          1 HLT      -0.094667
      5 C1          -0.3300    -0.5690    -0.1620 c3         1 HLT       0.153300
      6 Br           0.2170    -0.0220     1.6780 br         1 HLT      -0.149000
      7 Cl          -2.0630    -0.0690    -0.4190 cl         1 HLT      -0.166000
      8 HC1         -0.2990    -1.6630    -0.1940 h2         1 HLT       0.130700
@<TRIPOS>BOND
     1     1     2 1   
     2     2     3 1   
     3     2     4 1   
     4     2     5 1   
     5     5     6 1   
     6     5     7 1   
     7     5     8 1   
@<TRIPOS>SUBSTRUCTURE
     1 HLT         1 TEMP              0 ****  ****    0 ROOT
