@<TRIPOS>MOLECULE
HLV
   30    32     1     0     0
SMALL
bcc


@<TRIPOS>ATOM
      1 C1           0.7040    -0.0650    -0.0590 cp         1 HLV      -0.054000
      2 C2           2.0490    -0.5900    -0.0250 cp         1 HLV      -0.101000
      3 C3           0.8480     1.3200     0.0500 ca         1 HLV       0.048100
      4 C4           2.8780     0.5290     0.1000 ca         1 HLV       0.094100
      5 C5          -0.5590    -0.6260    -0.1660 ca         1 HLV      -0.116000
      6 C6          -1.6660     0.2210    -0.1630 ca         1 HLV       0.130100
      7 O2          -2.8690    -0.3800    -0.2710 os         1 HLV      -0.333900
      8 C10          4.2560     0.4400     0.1670 ca         1 HLV      -0.135000
      9 C11          3.9940    -1.9700    -0.0250 ca         1 HLV      -0.157000
     10 C12          4.8010    -0.8350     0.1010 ca         1 HLV      -0.100000
     11 C13         -4.0500     0.4060    -0.2340 c3         1 HLV       0.141400
     12 C14         -5.2320    -0.5330    -0.2970 c3         1 HLV       0.151800
     13 C7          -0.2310     2.1750     0.0530 ca         1 HLV      -0.091000
     14 C8           2.6140    -1.8590    -0.0900 ca         1 HLV      -0.067000
     15 C9          -1.4970     1.6090    -0.0550 ca         1 HLV      -0.189000
     16 N1          -5.3010    -1.3780     0.8840 n8         1 HLV      -0.885800
     17 O1           2.1600     1.6800     0.1460 os         1 HLV      -0.180200
     18 H1          -0.6960    -1.6970    -0.2480 ha         1 HLV       0.150000
     19 H2           4.8810     1.3180     0.2650 ha         1 HLV       0.150000
     20 H3           4.4570    -2.9470    -0.0740 ha         1 HLV       0.134000
     21 H4           5.8760    -0.9510     0.1490 ha         1 HLV       0.134000
     22 H5          -4.0910     0.9950     0.6880 h1         1 HLV       0.042700
     23 H6          -4.0800     1.0970    -1.0840 h1         1 HLV       0.042700
     24 H7          -6.1290     0.0880    -0.3330 h1         1 HLV       0.037700
     25 H8          -5.2000    -1.0850    -1.2470 h1         1 HLV       0.037700
     26 H9          -0.1140     3.2470     0.1350 ha         1 HLV       0.149000
     27 H10          1.9930    -2.7400    -0.1900 ha         1 HLV       0.138000
     28 H11         -2.3500     2.2730    -0.0550 ha         1 HLV       0.138000
     29 H12         -6.1500    -1.9270     0.8530 hn         1 HLV       0.345300
     30 H13         -4.5420    -2.0470     0.8690 hn         1 HLV       0.345300
@<TRIPOS>BOND
     1     1     2 1   
     2     1     3 ar  
     3     1     5 ar  
     4     2     4 ar  
     5     2    14 ar  
     6     3    13 ar  
     7     3    17 1   
     8     4     8 ar  
     9     4    17 1   
    10     5     6 ar  
    11     5    18 1   
    12     6     7 1   
    13     6    15 ar  
    14     7    11 1   
    15     8    10 ar  
    16     8    19 1   
    17     9    10 ar  
    18     9    14 ar  
    19     9    20 1   
    20    10    21 1   
    21    11    12 1   
    22    11    22 1   
    23    11    23 1   
    24    12    16 1   
    25    12    24 1   
    26    12    25 1   
    27    13    15 ar  
    28    13    26 1   
    29    14    27 1   
    30    15    28 1   
    31    16    29 1   
    32    16    30 1   
@<TRIPOS>SUBSTRUCTURE
     1 HLV         1 TEMP              0 ****  ****    0 ROOT
