@<TRIPOS>MOLECULE
HLV
   30    32     1     0     0
SMALL
No Charge or Current Charge


@<TRIPOS>ATOM
      1 C1           0.7430     0.0060    -0.0340 cp         1 HLV      -0.054000
      2 C2           2.1000    -0.5450    -0.0110 cp         1 HLV      -0.101000
      3 C3           0.8860     1.3900     0.0390 ca         1 HLV       0.048100
      4 C4           2.9600     0.5500     0.0750 ca         1 HLV       0.094100
      5 C5          -0.5320    -0.5820    -0.1110 ca         1 HLV      -0.098000
      6 C6          -1.6630     0.2640    -0.1110 ca         1 HLV       0.130100
      7 O2          -2.9050    -0.3320    -0.1880 os         1 HLV      -0.357100
      8 C10          4.3500     0.4100     0.1200 ca         1 HLV      -0.117000
      9 C11          4.0090    -2.0240    -0.0120 ca         1 HLV      -0.139000
     10 C12          4.8730    -0.9020     0.0750 ca         1 HLV      -0.082000
     11 C13         -4.1280     0.4350    -0.2000 c3         1 HLV       0.164600
     12 C14         -5.3270    -0.5460    -0.3040 c3         1 HLV       0.151800
     13 C7          -0.2110     2.2560     0.0410 ca         1 HLV      -0.073000
     14 C8           2.6060    -1.8560    -0.0560 ca         1 HLV      -0.049000
     15 C9          -1.5000     1.6800    -0.0360 ca         1 HLV      -0.171000
     16 N1          -5.4300    -1.4850     0.8450 n8         1 HLV      -0.996200
     17 O1           2.2250     1.7180     0.1050 os         1 HLV      -0.180200
     18 H1          -0.6450    -1.6610    -0.1680 ha         1 HLV       0.132000
     19 H2           5.0000     1.2780     0.1870 ha         1 HLV       0.132000
     20 H3           4.4300    -3.0270    -0.0460 ha         1 HLV       0.116000
     21 H4           5.9500    -1.0530     0.1080 ha         1 HLV       0.116000
     22 H5          -4.2240     1.0330     0.7150 h1         1 HLV       0.042700
     23 H6          -4.1490     1.1140    -1.0630 h1         1 HLV       0.042700
     24 H7          -6.2610     0.0290    -0.3710 h1         1 HLV       0.037700
     25 H8          -5.2250    -1.1320    -1.2280 h1         1 HLV       0.037700
     26 H9          -0.0740     3.3340     0.0990 ha         1 HLV       0.131000
     27 H10          1.9390    -2.7120    -0.1230 ha         1 HLV       0.120000
     28 H11         -2.3600     2.3430    -0.0350 ha         1 HLV       0.120000
     29 H12         -6.1330    -2.2030     0.6300 hn         1 HLV       0.400500
     30 H13         -4.5510    -2.0150     0.9040 hn         1 HLV       0.400500
@<TRIPOS>BOND
     1     1     2 1   
     2     1     3 ar  
     3     1     5 ar  
     4     2     4 ar  
     5     2    14 ar  
     6     3    13 ar  
     7     3    17 1   
     8     4     8 ar  
     9     4    17 1   
    10     5     6 ar  
    11     5    18 1   
    12     6     7 1   
    13     6    15 ar  
    14     7    11 1   
    15     8    10 ar  
    16     8    19 1   
    17     9    10 ar  
    18     9    14 ar  
    19     9    20 1   
    20    10    21 1   
    21    11    12 1   
    22    11    22 1   
    23    11    23 1   
    24    12    16 1   
    25    12    24 1   
    26    12    25 1   
    27    13    15 ar  
    28    13    26 1   
    29    14    27 1   
    30    15    28 1   
    31    16    29 1   
    32    16    30 1   
@<TRIPOS>SUBSTRUCTURE
     1 HLV         1 TEMP              0 ****  ****    0 ROOT
