@<TRIPOS>MOLECULE
HLW
   44    46     1     0     0
SMALL
No Charge or Current Charge


@<TRIPOS>ATOM
      1 N01          8.0240    -2.0830    -0.6490 nc         1 HLW      -0.669000
      2 C02          6.7630    -1.6830    -0.7970 cd         1 HLW       0.430400
      3 N03          6.4090    -0.9280     0.3040 na         1 HLW      -0.191000
      4 C04          7.5390    -0.6600     1.0520 cd         1 HLW      -0.191000
      5 C05          8.4950    -1.4590     0.4820 cc         1 HLW       0.228900
      6 C1          -5.1640    -0.7120    -0.0770 ca         1 HLW      -0.068300
      7 N11          6.0310     1.2040    -0.6800 nb         1 HLW      -0.193000
      8 C12          5.5660     0.1470     0.0370 ca         1 HLW       0.242500
      9 N13          4.2970     0.0920     0.5110 nb         1 HLW      -0.211000
     10 C14          3.4610     1.1210     0.2670 ca         1 HLW       0.159300
     11 C15          3.8810     2.2360    -0.4670 ca         1 HLW      -0.233000
     12 C16          5.2010     2.2350    -0.9300 ca         1 HLW       0.137900
     13 C17          2.0470     1.0130     0.8100 c3         1 HLW      -0.138700
     14 C18          1.0800     0.4180    -0.2270 c3         1 HLW       0.162800
     15 N19         -0.2790     0.3550     0.3370 n7         1 HLW      -0.861400
     16 C2          -5.9740     0.4400    -0.1090 ca         1 HLW      -0.101000
     17 C20         -1.3080    -0.1790    -0.5730 c3         1 HLW       0.157800
     18 C21         -2.6850    -0.1780     0.1210 c3         1 HLW      -0.078400
     19 C22         -3.8130    -0.7200    -0.7810 c3         1 HLW      -0.032100
     20 C3          -7.2170     0.4490     0.5450 ca         1 HLW       0.123000
     21 C4          -7.6600    -0.6900     1.2360 ca         1 HLW      -0.104000
     22 C5          -6.8550    -1.8420     1.2740 ca         1 HLW      -0.100000
     23 C6          -5.6100    -1.8520     0.6200 ca         1 HLW      -0.108000
     24 Cl7         -8.2220     1.8920     0.4990 cl         1 HLW      -0.208000
     25 H02          6.0870    -1.8930    -1.6190 h5         1 HLW       0.072100
     26 H04          7.5800     0.0240     1.8920 h4         1 HLW       0.176000
     27 H05          9.5250    -1.5910     0.7880 h4         1 HLW       0.041100
     28 H15          3.2130     3.0690    -0.6730 ha         1 HLW       0.144000
     29 H16          5.6030     3.0660    -1.5080 h4         1 HLW       0.033100
     30 H17          2.0350     0.3940     1.7160 hc         1 HLW       0.070700
     31 H17A         1.6880     2.0060     1.1080 hc         1 HLW       0.070700
     32 H18          1.0930     1.0450    -1.1300 h1         1 HLW       0.039200
     33 H18A         1.4280    -0.5850    -0.5100 h1         1 HLW       0.039200
     34 HN19        -0.2510    -0.2420     1.1720 hn         1 HLW       0.407000
     35 H2          -5.6410     1.3290    -0.6400 ha         1 HLW       0.128000
     36 H20         -1.3670     0.4320    -1.4840 h1         1 HLW       0.030700
     37 H20A        -1.0580    -1.2060    -0.8730 h1         1 HLW       0.030700
     38 H21         -2.6330    -0.7870     1.0330 hc         1 HLW       0.051200
     39 H21A        -2.9330     0.8450     0.4300 hc         1 HLW       0.051200
     40 H22         -3.5610    -1.7390    -1.1010 hc         1 HLW       0.049200
     41 H22A        -3.8640    -0.1170    -1.6960 hc         1 HLW       0.049200
     42 H4          -8.6220    -0.6790     1.7420 ha         1 HLW       0.130000
     43 H5          -7.1950    -2.7260     1.8100 ha         1 HLW       0.118000
     44 H6          -4.9920    -2.7460     0.6560 ha         1 HLW       0.115000
@<TRIPOS>BOND
     1     1     2 2   
     2     1     5 1   
     3     2     3 1   
     4     2    25 1   
     5     3     4 1   
     6     3     8 1   
     7     4     5 2   
     8     4    26 1   
     9     5    27 1   
    10     6    16 ar  
    11     6    19 1   
    12     6    23 ar  
    13     7     8 ar  
    14     7    12 ar  
    15     8     9 ar  
    16     9    10 ar  
    17    10    11 ar  
    18    10    13 1   
    19    11    12 ar  
    20    11    28 1   
    21    12    29 1   
    22    13    14 1   
    23    13    30 1   
    24    13    31 1   
    25    14    15 1   
    26    14    32 1   
    27    14    33 1   
    28    15    17 1   
    29    15    34 1   
    30    16    20 ar  
    31    16    35 1   
    32    17    18 1   
    33    17    36 1   
    34    17    37 1   
    35    18    19 1   
    36    18    38 1   
    37    18    39 1   
    38    19    40 1   
    39    19    41 1   
    40    20    21 ar  
    41    20    24 1   
    42    21    22 ar  
    43    21    42 1   
    44    22    23 ar  
    45    22    43 1   
    46    23    44 1   
@<TRIPOS>SUBSTRUCTURE
     1 HLW         1 TEMP              0 ****  ****    0 ROOT
