@<TRIPOS>MOLECULE
HLW
   44    46     1     0     0
SMALL
abcg2


@<TRIPOS>ATOM
      1 N01          6.4910    -2.9420     0.2720 nc         1 HLW      -0.669000
      2 C02          5.6000    -2.0060     0.4090 cd         1 HLW       0.430400
      3 N03          6.0810    -0.7950     0.0060 na         1 HLW      -0.191000
      4 C04          7.3760    -0.9960    -0.4160 cd         1 HLW      -0.191000
      5 C05          7.6050    -2.3240    -0.2420 cc         1 HLW       0.228900
      6 C1          -4.8600    -0.8700    -0.2370 ca         1 HLW      -0.068300
      7 N11          6.0310     1.4720    -0.4370 nb         1 HLW      -0.193000
      8 C12          5.3830     0.4170     0.0180 ca         1 HLW       0.242500
      9 N13          4.1520     0.3730     0.4850 nb         1 HLW      -0.211000
     10 C14          3.4700     1.5150     0.5050 ca         1 HLW       0.159300
     11 C15          4.0520     2.6930     0.0490 ca         1 HLW      -0.233000
     12 C16          5.3510     2.6120    -0.4160 ca         1 HLW       0.137900
     13 C17          2.0620     1.4570     1.0040 c3         1 HLW      -0.138700
     14 C18          1.1400     0.8050    -0.0280 c3         1 HLW       0.162800
     15 N19         -0.2050     0.6940     0.4940 n7         1 HLW      -0.861400
     16 C2          -5.8450     0.0910    -0.4510 ca         1 HLW      -0.101000
     17 C20         -1.1270     0.1010    -0.4570 c3         1 HLW       0.157800
     18 C21         -2.5180    -0.0420     0.1390 c3         1 HLW      -0.078400
     19 C22         -3.4920    -0.7050    -0.8360 c3         1 HLW      -0.032100
     20 C3          -7.0890    -0.0530     0.1420 ca         1 HLW       0.123000
     21 C4          -7.3880    -1.1360     0.9520 ca         1 HLW      -0.104000
     22 C5          -6.4040    -2.0930     1.1630 ca         1 HLW      -0.100000
     23 C6          -5.1540    -1.9620     0.5760 ca         1 HLW      -0.108000
     24 CL7         -8.3040     1.1550    -0.1430 cl         1 HLW      -0.208000
     25 H02          4.5980    -2.1270     0.7870 h5         1 HLW       0.072100
     26 H04          7.9930    -0.1970    -0.7870 h4         1 HLW       0.176000
     27 H05          8.5090    -2.8690    -0.4600 h4         1 HLW       0.041100
     28 H15          3.5170     3.6310     0.0610 ha         1 HLW       0.144000
     29 H16          5.8680     3.4910    -0.7810 h4         1 HLW       0.033100
     30 H17          2.0450     0.8710     1.9260 hc         1 HLW       0.070700
     31 H17A         1.7020     2.4590     1.2370 hc         1 HLW       0.070700
     32 H18          1.1120     1.4280    -0.9270 h1         1 HLW       0.039200
     33 H18A         1.5640    -0.1640    -0.3330 h1         1 HLW       0.039200
     34 HN19        -0.1820     0.1120     1.3250 hn         1 HLW       0.407000
     35 H2          -5.6390     0.9460    -1.0830 ha         1 HLW       0.128000
     36 H20         -1.1740     0.7480    -1.3380 h1         1 HLW       0.030700
     37 H20A        -0.7830    -0.8830    -0.8160 h1         1 HLW       0.030700
     38 H21         -2.4630    -0.6410     1.0540 hc         1 HLW       0.051200
     39 H21A        -2.8960     0.9420     0.4300 hc         1 HLW       0.051200
     40 H22         -3.1000    -1.6830    -1.1270 hc         1 HLW       0.049200
     41 H22A        -3.5550    -0.1070    -1.7490 hc         1 HLW       0.049200
     42 H4          -8.3640    -1.2360     1.4060 ha         1 HLW       0.130000
     43 H5          -6.6210    -2.9470     1.7910 ha         1 HLW       0.118000
     44 H6          -4.3980    -2.7180     0.7500 ha         1 HLW       0.115000
@<TRIPOS>BOND
     1     1     2 2   
     2     1     5 1   
     3     2     3 1   
     4     2    25 1   
     5     3     4 1   
     6     3     8 1   
     7     4     5 2   
     8     4    26 1   
     9     5    27 1   
    10     6    16 ar  
    11     6    19 1   
    12     6    23 ar  
    13     7     8 ar  
    14     7    12 ar  
    15     8     9 ar  
    16     9    10 ar  
    17    10    11 ar  
    18    10    13 1   
    19    11    12 ar  
    20    11    28 1   
    21    12    29 1   
    22    13    14 1   
    23    13    30 1   
    24    13    31 1   
    25    14    15 1   
    26    14    32 1   
    27    14    33 1   
    28    15    17 1   
    29    15    34 1   
    30    16    20 ar  
    31    16    35 1   
    32    17    18 1   
    33    17    36 1   
    34    17    37 1   
    35    18    19 1   
    36    18    38 1   
    37    18    39 1   
    38    19    40 1   
    39    19    41 1   
    40    20    21 ar  
    41    20    24 1   
    42    21    22 ar  
    43    21    42 1   
    44    22    23 ar  
    45    22    43 1   
    46    23    44 1   
@<TRIPOS>SUBSTRUCTURE
     1 HLW         1 TEMP              0 ****  ****    0 ROOT
