@<TRIPOS>MOLECULE
HLX
   24    23     1     0     0
SMALL
No Charge or Current Charge


@<TRIPOS>ATOM
      1 N           56.6470    79.8040   150.0470 n8         1 HLX      -0.890800
      2 CA          56.2960    80.2860   148.6550 c3         1 HLX       0.021500
      3 C           57.4840    80.5660   147.6220 c          1 HLX       0.930600
      4 O           58.5890    80.9020   148.0440 o          1 HLX      -0.838800
      5 CB          55.3160    81.4910   148.7240 c3         1 HLX      -0.030400
      6 CG          55.9080    82.7840   149.3470 c3         1 HLX      -0.064400
      7 C7          54.9640    84.0190   149.3050 c3         1 HLX      -0.065700
      8 C8          55.7000    85.2930   149.7790 c3         1 HLX      -0.081100
      9 C9          53.6580    83.8110   150.1090 c3         1 HLX      -0.081100
     10 O1          57.2960    80.3090   146.4360 o          1 HLX      -0.838800
     11 H1          55.7890    79.5400   150.5400 hn         1 HLX       0.323300
     12 H2          57.1870    78.9360   149.9780 hn         1 HLX       0.323300
     13 H4          55.7240    79.4560   148.2200 h1         1 HLX      -0.007300
     14 H5          54.9650    81.7130   147.7090 hc         1 HLX       0.013200
     15 H6          54.4320    81.1830   149.2950 hc         1 HLX       0.013200
     16 H7          56.1960    82.5880   150.3870 hc         1 HLX       0.055200
     17 H8          56.8310    83.0390   148.8120 hc         1 HLX       0.055200
     18 H9          54.6800    84.1850   148.2580 hc         1 HLX       0.039700
     19 H10         55.0490    86.1710   149.6950 hc         1 HLX       0.020700
     20 H11         56.0120    85.1960   150.8260 hc         1 HLX       0.020700
     21 H12         56.5930    85.4760   149.1700 hc         1 HLX       0.020700
     22 H13         53.0450    84.7200   150.0930 hc         1 HLX       0.020700
     23 H14         53.0540    83.0010   149.6840 hc         1 HLX       0.020700
     24 H15         53.8780    83.5670   151.1560 hc         1 HLX       0.020700
@<TRIPOS>BOND
     1     1     2 1   
     2     1    11 1   
     3     1    12 1   
     4     2     3 1   
     5     2     5 1   
     6     2    13 1   
     7     3     4 1   
     8     3    10 1   
     9     5     6 1   
    10     5    14 1   
    11     5    15 1   
    12     6     7 1   
    13     6    16 1   
    14     6    17 1   
    15     7     8 1   
    16     7     9 1   
    17     7    18 1   
    18     8    19 1   
    19     8    20 1   
    20     8    21 1   
    21     9    22 1   
    22     9    23 1   
    23     9    24 1   
@<TRIPOS>SUBSTRUCTURE
     1 HLX         1 TEMP              0 ****  ****    0 ROOT
