@<TRIPOS>MOLECULE
HLX
   24    23     1     0     0
SMALL
bcc


@<TRIPOS>ATOM
      1 N           56.5740    79.8970   150.0230 n8         1 HLX      -0.890800
      2 CA          56.2320    80.3050   148.6670 c3         1 HLX       0.021500
      3 C           57.5060    80.5640   147.8220 c          1 HLX       0.930600
      4 O           58.5790    80.0970   148.2540 o          1 HLX      -0.838800
      5 CB          55.2800    81.5030   148.6960 c3         1 HLX      -0.030400
      6 CG          55.8750    82.7750   149.2860 c3         1 HLX      -0.064400
      7 C7          54.9340    83.9820   149.2690 c3         1 HLX      -0.065700
      8 C8          55.6850    85.2440   149.6830 c3         1 HLX      -0.081100
      9 C9          53.7090    83.7770   150.1560 c3         1 HLX      -0.081100
     10 O1          57.3410    81.1780   146.7490 o          1 HLX      -0.838800
     11 H1          55.8090    79.3710   150.4250 hn         1 HLX       0.323300
     12 H2          57.3710    79.2760   149.9770 hn         1 HLX       0.323300
     13 H4          55.6970    79.5020   148.1280 h1         1 HLX      -0.007300
     14 H5          54.9410    81.7020   147.6770 hc         1 HLX       0.013200
     15 H6          54.3850    81.2130   149.2570 hc         1 HLX       0.013200
     16 H7          56.2000    82.5920   150.3150 hc         1 HLX       0.055200
     17 H8          56.7740    83.0380   148.7210 hc         1 HLX       0.055200
     18 H9          54.5850    84.1230   148.2380 hc         1 HLX       0.039700
     19 H10         55.0410    86.1250   149.6420 hc         1 HLX       0.020700
     20 H11         56.0600    85.1580   150.7060 hc         1 HLX       0.020700
     21 H12         56.5410    85.4290   149.0320 hc         1 HLX       0.020700
     22 H13         53.0660    84.6600   150.1460 hc         1 HLX       0.020700
     23 H14         53.1040    82.9300   149.8320 hc         1 HLX       0.020700
     24 H15         54.0070    83.5960   151.1910 hc         1 HLX       0.020700
@<TRIPOS>BOND
     1     1     2 1   
     2     1    11 1   
     3     1    12 1   
     4     2     3 1   
     5     2     5 1   
     6     2    13 1   
     7     3     4 1   
     8     3    10 1   
     9     5     6 1   
    10     5    14 1   
    11     5    15 1   
    12     6     7 1   
    13     6    16 1   
    14     6    17 1   
    15     7     8 1   
    16     7     9 1   
    17     7    18 1   
    18     8    19 1   
    19     8    20 1   
    20     8    21 1   
    21     9    22 1   
    22     9    23 1   
    23     9    24 1   
@<TRIPOS>SUBSTRUCTURE
     1 HLX         1 TEMP              0 ****  ****    0 ROOT
