@<TRIPOS>MOLECULE
HLZ
   20    21     1     0     0
SMALL
No Charge or Current Charge


@<TRIPOS>ATOM
      1 C1          -1.1470     0.0830     0.0820 ca         1 HLZ       0.599900
      2 N2          -1.6550    -1.1790     0.0780 nb         1 HLZ      -0.386000
      3 N3          -0.8460    -2.2610     0.0350 nb         1 HLZ      -0.285000
      4 C4           0.4990    -2.1090    -0.0060 ca         1 HLZ       0.249900
      5 C5           1.0980    -0.8330    -0.0050 ca         1 HLZ      -0.043000
      6 C6           0.2580     0.3060     0.0410 ca         1 HLZ      -0.098000
      7 C7           0.8430     1.5950     0.0430 ca         1 HLZ      -0.089000
      8 C8           2.2420     1.7330     0.0000 ca         1 HLZ      -0.105000
      9 C9           3.0680     0.5970    -0.0440 ca         1 HLZ      -0.093000
     10 C10          2.4970    -0.6870    -0.0470 ca         1 HLZ      -0.089000
     11 N11         -2.0910     1.1430     0.1290 nu         1 HLZ      -0.746900
     12 N12         -3.5620     0.9910     0.1740 n8         1 HLZ      -0.680000
     13 H4           1.0960    -3.0190    -0.0400 h4         1 HLZ       0.026100
     14 H7           0.2320     2.4930     0.0770 ha         1 HLZ       0.108000
     15 H8           2.6880     2.7260     0.0020 ha         1 HLZ       0.117000
     16 H9           4.1490     0.7110    -0.0770 ha         1 HLZ       0.119000
     17 H10          3.1410    -1.5640    -0.0820 ha         1 HLZ       0.123000
     18 HN11        -1.6620     2.0790     0.1310 hn         1 HLZ       0.475000
     19 HN12        -4.0230     1.3280     1.0370 hn         1 HLZ       0.399000
     20 HN1A        -4.0760     1.3550    -0.6480 hn         1 HLZ       0.399000
@<TRIPOS>BOND
     1     1     2 ar  
     2     1     6 ar  
     3     1    11 1   
     4     2     3 ar  
     5     3     4 ar  
     6     4     5 ar  
     7     4    13 1   
     8     5     6 ar  
     9     5    10 ar  
    10     6     7 ar  
    11     7     8 ar  
    12     7    14 1   
    13     8     9 ar  
    14     8    15 1   
    15     9    10 ar  
    16     9    16 1   
    17    10    17 1   
    18    11    12 1   
    19    11    18 1   
    20    12    19 1   
    21    12    20 1   
@<TRIPOS>SUBSTRUCTURE
     1 HLZ         1 TEMP              0 ****  ****    0 ROOT
