@<TRIPOS>MOLECULE
HLZ
   20    21     1     0     0
SMALL
bcc


@<TRIPOS>ATOM
      1 C1          -1.1870     0.0470     0.1200 ca         1 HLZ       0.665200
      2 N2          -1.6710    -1.1740     0.1210 nb         1 HLZ      -0.386000
      3 N3          -0.8500    -2.2320     0.0610 nb         1 HLZ      -0.285000
      4 C4           0.4320    -2.0820    -0.0100 ca         1 HLZ       0.315200
      5 C5           1.0640    -0.8070    -0.0140 ca         1 HLZ      -0.108300
      6 C6           0.2320     0.3190     0.0600 ca         1 HLZ      -0.163300
      7 C7           0.8140     1.5990     0.0840 ca         1 HLZ      -0.107000
      8 C8           2.1810     1.7340     0.0230 ca         1 HLZ      -0.123000
      9 C9           3.0090     0.6040    -0.0610 ca         1 HLZ      -0.111000
     10 C10          2.4590    -0.6530    -0.0780 ca         1 HLZ      -0.107000
     11 N11         -2.0440     1.0900     0.1880 nu         1 HLZ      -0.691700
     12 N12         -3.4130     0.9040     0.2010 n8         1 HLZ      -0.569600
     13 H4           1.0300    -2.9860    -0.0650 h4         1 HLZ       0.026100
     14 H7           0.2120     2.4940     0.1540 ha         1 HLZ       0.126000
     15 H8           2.6220     2.7210     0.0420 ha         1 HLZ       0.135000
     16 H9           4.0830     0.7280    -0.1060 ha         1 HLZ       0.137000
     17 H10          3.0880    -1.5320    -0.1370 ha         1 HLZ       0.141000
     18 HN11        -1.6950     2.0210     0.0320 hn         1 HLZ       0.419800
     19 HN12        -3.8080     1.4690     0.9400 hn         1 HLZ       0.343800
     20 HN1A        -3.8080     1.2240    -0.6750 hn         1 HLZ       0.343800
@<TRIPOS>BOND
     1     1     2 ar  
     2     1     6 ar  
     3     1    11 1   
     4     2     3 ar  
     5     3     4 ar  
     6     4     5 ar  
     7     4    13 1   
     8     5     6 ar  
     9     5    10 ar  
    10     6     7 ar  
    11     7     8 ar  
    12     7    14 1   
    13     8     9 ar  
    14     8    15 1   
    15     9    10 ar  
    16     9    16 1   
    17    10    17 1   
    18    11    12 1   
    19    11    18 1   
    20    12    19 1   
    21    12    20 1   
@<TRIPOS>SUBSTRUCTURE
     1 HLZ         1 TEMP              0 ****  ****    0 ROOT
