@<TRIPOS>MOLECULE
HM0
   21    22     1     0     0
SMALL
abcg2


@<TRIPOS>ATOM
      1 C10         32.0500    20.3330   -12.2780 cy         1 HM0      -0.103400
      2 C11         32.1020    18.8160   -12.5540 cy         1 HM0      -0.100400
      3 O01         28.5090    16.6800    -8.5150 o          1 HM0      -0.702500
      4 C02         29.2070    17.4410    -9.2030 c          1 HM0       0.636500
      5 C03         30.5930    16.9230    -9.5390 cc         1 HM0       0.367000
      6 N04         31.1390    15.8790    -8.9520 nd         1 HM0      -0.677000
      7 C05         32.3850    15.7540    -9.4750 cd         1 HM0       0.200900
      8 C06         32.6040    16.7340   -10.4010 cc         1 HM0      -0.294000
      9 N07         31.4580    17.4730   -10.4440 na         1 HM0      -0.136500
     10 C08         31.2530    18.6330   -11.2860 cy         1 HM0       0.086300
     11 C09         31.7300    20.0100   -10.8060 cy         1 HM0      -0.100400
     12 O12         28.9080    18.5740    -9.6270 o          1 HM0      -0.702500
     13 H1          32.9510    20.9070   -12.4830 hc         1 HM0       0.038200
     14 H2          31.2080    20.8080   -12.7810 hc         1 HM0       0.038200
     15 H3          31.6870    18.4380   -13.4880 hc         1 HM0       0.051950
     16 H4          33.1210    18.4440   -12.4460 hc         1 HM0       0.051950
     17 H6          33.0640    14.9730    -9.1680 h4         1 HM0       0.004100
     18 H7          33.4590    16.9430   -11.0200 h4         1 HM0       0.124000
     19 H8          30.1990    18.6790   -11.5400 h1         1 HM0       0.112700
     20 H9          32.6410    19.9290   -10.2110 hc         1 HM0       0.051950
     21 H10         31.0100    20.6310   -10.2750 hc         1 HM0       0.051950
@<TRIPOS>BOND
     1     1     2 1   
     2     1    11 1   
     3     1    13 1   
     4     1    14 1   
     5     2    10 1   
     6     2    15 1   
     7     2    16 1   
     8     3     4 1   
     9     4     5 1   
    10     4    12 1   
    11     5     6 2   
    12     5     9 1   
    13     6     7 1   
    14     7     8 2   
    15     7    17 1   
    16     8     9 1   
    17     8    18 1   
    18     9    10 1   
    19    10    11 1   
    20    10    19 1   
    21    11    20 1   
    22    11    21 1   
@<TRIPOS>SUBSTRUCTURE
     1 HM0         1 TEMP              0 ****  ****    0 ROOT
