@<TRIPOS>MOLECULE
HM0
   21    22     1     0     0
SMALL
No Charge or Current Charge


@<TRIPOS>ATOM
      1 C10         31.8960    20.3910   -12.2980 cy         1 HM0      -0.103400
      2 C11         32.3590    18.9090   -12.4780 cy         1 HM0      -0.100400
      3 O01         28.6130    17.0880    -8.1680 o          1 HM0      -0.702500
      4 C02         29.2640    17.5940    -9.0810 c          1 HM0       0.636500
      5 C03         30.6060    16.9680    -9.4880 cc         1 HM0       0.367000
      6 N04         31.1310    15.8710    -8.9140 nd         1 HM0      -0.677000
      7 C05         32.3190    15.6080    -9.5460 cd         1 HM0       0.200900
      8 C06         32.5560    16.5330   -10.5200 cc         1 HM0      -0.294000
      9 N07         31.4830    17.4040   -10.4890 na         1 HM0      -0.136500
     10 C08         31.3200    18.5720   -11.3500 cy         1 HM0       0.086300
     11 C09         31.6560    20.0010   -10.8020 cy         1 HM0      -0.100400
     12 O12         28.8410    18.5840    -9.6690 o          1 HM0      -0.702500
     13 H1          32.6570    21.1580   -12.4780 hc         1 HM0       0.038200
     14 H2          30.9880    20.6590   -12.8520 hc         1 HM0       0.038200
     15 H3          32.1630    18.4590   -13.4570 hc         1 HM0       0.051950
     16 H4          33.4090    18.7320   -12.2150 hc         1 HM0       0.051950
     17 H6          32.9390    14.7650    -9.2650 h4         1 HM0       0.004100
     18 H7          33.3870    16.6270   -11.2060 h4         1 HM0       0.124000
     19 H8          30.3020    18.5030   -11.7540 h1         1 HM0       0.112700
     20 H9          32.5490    20.0480   -10.1660 hc         1 HM0       0.051950
     21 H10         30.8400    20.5270   -10.2950 hc         1 HM0       0.051950
@<TRIPOS>BOND
     1     1     2 1   
     2     1    11 1   
     3     1    13 1   
     4     1    14 1   
     5     2    10 1   
     6     2    15 1   
     7     2    16 1   
     8     3     4 1   
     9     4     5 1   
    10     4    12 1   
    11     5     6 2   
    12     5     9 1   
    13     6     7 1   
    14     7     8 2   
    15     7    17 1   
    16     8     9 1   
    17     8    18 1   
    18     9    10 1   
    19    10    11 1   
    20    10    19 1   
    21    11    20 1   
    22    11    21 1   
@<TRIPOS>SUBSTRUCTURE
     1 HM0         1 TEMP              0 ****  ****    0 ROOT
