@<TRIPOS>MOLECULE
HM2
   40    42     1     0     0
SMALL
bcc


@<TRIPOS>ATOM
      1 N1           1.6290     2.6630    -0.1800 nb         1 HM2      -0.628000
      2 N2           0.9800     0.0430     0.0290 nb         1 HM2      -0.748000
      3 N3           3.2740    -0.5090     0.0110 nb         1 HM2      -0.760000
      4 N4          -0.6510    -1.5680     0.0910 nu         1 HM2      -0.867900
      5 C1           1.9230     3.9530    -0.2370 ca         1 HM2       0.392200
      6 C2           3.2200     4.4470    -0.1830 ca         1 HM2      -0.234300
      7 C3           4.2580     3.5380    -0.0650 ca         1 HM2      -0.107000
      8 C4           3.9600     2.1860    -0.0070 ca         1 HM2      -0.198300
      9 C5           2.6260     1.7910    -0.0670 cp         1 HM2       0.353300
     10 C6           2.2650     0.3470    -0.0060 cp         1 HM2       0.662000
     11 C7           0.6460    -1.2460     0.0730 ca         1 HM2       0.731200
     12 C8           2.9790    -1.8120     0.0590 ca         1 HM2       0.506600
     13 C9           1.6650    -2.2240     0.0890 ca         1 HM2      -0.307200
     14 C10         -1.7150    -0.5870     0.1320 c3         1 HM2       0.230800
     15 C11         -3.0600    -1.2740    -0.0830 c3         1 HM2      -0.050100
     16 C12         -4.1840    -0.2780    -0.0290 ca         1 HM2      -0.083300
     17 C13         -4.5680     0.4250    -1.1690 ca         1 HM2      -0.120500
     18 C14         -5.5830     1.3710    -1.1120 ca         1 HM2      -0.126000
     19 C15         -6.2310     1.6280     0.0890 ca         1 HM2      -0.125000
     20 C16         -5.8560     0.9330     1.2320 ca         1 HM2      -0.126000
     21 C17         -4.8400    -0.0110     1.1710 ca         1 HM2      -0.120500
     22 C18          4.1150    -2.7830     0.0750 c3         1 HM2      -0.151400
     23 CL1          1.2550    -3.9010     0.1400 cl         1 HM2      -0.101400
     24 HN4         -0.9020    -2.5350     0.2220 hn         1 HM2       0.447800
     25 H1           1.0850     4.6350    -0.3320 h4         1 HM2       0.020100
     26 H2           3.4010     5.5120    -0.2320 ha         1 HM2       0.141000
     27 H3           5.2860     3.8730    -0.0170 ha         1 HM2       0.138000
     28 H4           4.7420     1.4470     0.0840 ha         1 HM2       0.164000
     29 H101        -1.7160    -0.0550     1.0890 h1         1 HM2       0.065700
     30 H102        -1.5520     0.1600    -0.6460 h1         1 HM2       0.065700
     31 H111        -3.0520    -1.7850    -1.0480 hc         1 HM2       0.050700
     32 H112        -3.2060    -2.0380     0.6850 hc         1 HM2       0.050700
     33 H13         -4.0710     0.2270    -2.1110 ha         1 HM2       0.129500
     34 H14         -5.8700     1.9060    -2.0080 ha         1 HM2       0.131000
     35 H15         -7.0250     2.3610     0.1330 ha         1 HM2       0.131000
     36 H16         -6.3590     1.1220     2.1720 ha         1 HM2       0.131000
     37 H17         -4.5570    -0.5530     2.0660 ha         1 HM2       0.129500
     38 H181         4.0790    -3.4180     0.9600 hc         1 HM2       0.060033
     39 H182         4.0790    -3.4410    -0.7940 hc         1 HM2       0.060033
     40 H183         5.0620    -2.2480     0.0660 hc         1 HM2       0.060033
@<TRIPOS>BOND
     1     1     5 ar  
     2     1     9 ar  
     3     2    10 ar  
     4     2    11 ar  
     5     3    10 ar  
     6     3    12 ar  
     7     4    11 1   
     8     4    14 1   
     9     4    24 1   
    10     5     6 ar  
    11     5    25 1   
    12     6     7 ar  
    13     6    26 1   
    14     7     8 ar  
    15     7    27 1   
    16     8     9 ar  
    17     8    28 1   
    18     9    10 1   
    19    11    13 ar  
    20    12    13 ar  
    21    12    22 1   
    22    13    23 1   
    23    14    15 1   
    24    14    29 1   
    25    14    30 1   
    26    15    16 1   
    27    15    31 1   
    28    15    32 1   
    29    16    17 ar  
    30    16    21 ar  
    31    17    18 ar  
    32    17    33 1   
    33    18    19 ar  
    34    18    34 1   
    35    19    20 ar  
    36    19    35 1   
    37    20    21 ar  
    38    20    36 1   
    39    21    37 1   
    40    22    38 1   
    41    22    39 1   
    42    22    40 1   
@<TRIPOS>SUBSTRUCTURE
     1 HM2         1 TEMP              0 ****  ****    0 ROOT
