@<TRIPOS>MOLECULE
HM2
   40    42     1     0     0
SMALL
No Charge or Current Charge


@<TRIPOS>ATOM
      1 N1           1.7950     2.7810    -0.0090 nb         1 HM2      -0.628000
      2 N2           1.0570     0.0840     0.0090 nb         1 HM2      -0.222000
      3 N3           3.3630    -0.5450     0.0110 nb         1 HM2      -0.234000
      4 N4          -0.6650    -1.5020     0.0200 nu         1 HM2      -0.923100
      5 C1           2.1190     4.0940    -0.0180 ca         1 HM2       0.326900
      6 C2           3.4470     4.5500    -0.0220 ca         1 HM2      -0.151000
      7 C3           4.4890     3.6100    -0.0160 ca         1 HM2      -0.089000
      8 C4           4.1510     2.2470    -0.0070 ca         1 HM2      -0.115000
      9 C5           2.7850     1.8460    -0.0040 cp         1 HM2       0.288000
     10 C6           2.3780     0.3830     0.0060 cp         1 HM2       0.136000
     11 C7           0.7000    -1.2130     0.0170 ca         1 HM2       0.402900
     12 C8           3.0160    -1.8490     0.0200 ca         1 HM2       0.178300
     13 C9           1.6630    -2.2400     0.0230 ca         1 HM2      -0.085000
     14 C10         -1.7830    -0.5400     0.0140 c3         1 HM2       0.230800
     15 C11         -3.1390    -1.2720     0.0210 c3         1 HM2      -0.050100
     16 C12         -4.3100    -0.2990     0.0160 ca         1 HM2      -0.083300
     17 C13         -4.8610     0.1430    -1.2030 ca         1 HM2      -0.102500
     18 C14         -5.9390     1.0470    -1.2080 ca         1 HM2      -0.108000
     19 C15         -6.4700     1.5140     0.0060 ca         1 HM2      -0.107000
     20 C16         -5.9230     1.0780     1.2250 ca         1 HM2      -0.108000
     21 C17         -4.8460     0.1740     1.2290 ca         1 HM2      -0.102500
     22 C18          4.1540    -2.8570     0.0260 c3         1 HM2      -0.151400
     23 Cl1          1.1920    -3.9500     0.0340 cl         1 HM2      -0.193000
     24 HN4         -0.8940    -2.4980     0.0270 hn         1 HM2       0.503000
     25 H1           1.2900     4.8000    -0.0220 h4         1 HM2       0.020100
     26 H2           3.6580     5.6160    -0.0290 ha         1 HM2       0.123000
     27 H3           5.5290     3.9290    -0.0190 ha         1 HM2       0.120000
     28 H4           4.9440     1.5040    -0.0030 ha         1 HM2       0.146000
     29 H101        -1.7250     0.1130     0.8970 h1         1 HM2       0.065700
     30 H102        -1.7260     0.1010    -0.8780 h1         1 HM2       0.065700
     31 H111        -3.1950    -1.9330    -0.8530 hc         1 HM2       0.050700
     32 H112        -3.1930    -1.9200     0.9040 hc         1 HM2       0.050700
     33 H13         -4.4550    -0.2120    -2.1480 ha         1 HM2       0.111500
     34 H14         -6.3600     1.3850    -2.1520 ha         1 HM2       0.113000
     35 H15         -7.3030     2.2140     0.0020 ha         1 HM2       0.113000
     36 H16         -6.3330     1.4400     2.1650 ha         1 HM2       0.113000
     37 H17         -4.4280    -0.1570     2.1780 ha         1 HM2       0.111500
     38 H181         4.1070    -3.4940     0.9160 hc         1 HM2       0.060033
     39 H182         4.1060    -3.5060    -0.8570 hc         1 HM2       0.060033
     40 H183         5.1360    -2.3670     0.0220 hc         1 HM2       0.060033
@<TRIPOS>BOND
     1     1     5 ar  
     2     1     9 ar  
     3     2    10 ar  
     4     2    11 ar  
     5     3    10 ar  
     6     3    12 ar  
     7     4    11 1   
     8     4    14 1   
     9     4    24 1   
    10     5     6 ar  
    11     5    25 1   
    12     6     7 ar  
    13     6    26 1   
    14     7     8 ar  
    15     7    27 1   
    16     8     9 ar  
    17     8    28 1   
    18     9    10 1   
    19    11    13 ar  
    20    12    13 ar  
    21    12    22 1   
    22    13    23 1   
    23    14    15 1   
    24    14    29 1   
    25    14    30 1   
    26    15    16 1   
    27    15    31 1   
    28    15    32 1   
    29    16    17 ar  
    30    16    21 ar  
    31    17    18 ar  
    32    17    33 1   
    33    18    19 ar  
    34    18    34 1   
    35    19    20 ar  
    36    19    35 1   
    37    20    21 ar  
    38    20    36 1   
    39    21    37 1   
    40    22    38 1   
    41    22    39 1   
    42    22    40 1   
@<TRIPOS>SUBSTRUCTURE
     1 HM2         1 TEMP              0 ****  ****    0 ROOT
