@<TRIPOS>MOLECULE
HM3
   15    15     1     0     0
SMALL
No Charge or Current Charge


@<TRIPOS>ATOM
      1 C1           2.6930     0.4100    -0.1660 c3         1 HM3       0.108300
      2 N1           1.2540    -1.5640     0.2250 nb         1 HM3      -0.678000
      3 C2           1.3030    -0.2420    -0.0840 ca         1 HM3       0.352300
      4 C3           0.1450     0.5170    -0.3300 ca         1 HM3      -0.129000
      5 C4          -1.1050    -0.1080    -0.2500 ca         1 HM3       0.148000
      6 C5          -1.1600    -1.4700     0.0710 ca         1 HM3      -0.161000
      7 C6           0.0400    -2.1580     0.3000 ca         1 HM3       0.349900
      8 O1           2.8720     1.4560     0.8130 oh         1 HM3      -0.662000
      9 H3           0.2220     1.5710    -0.5740 ha         1 HM3       0.157000
     10 Cl1         -2.5810     0.8000    -0.5470 cl         1 HM3      -0.188000
     11 H4          -2.1110    -1.9890     0.1420 ha         1 HM3       0.139000
     12 H5           0.0320    -3.2180     0.5520 h4         1 HM3       0.023100
     13 H6           3.7900     1.7960     0.7110 ho         1 HM3       0.453000
     14 HOM          3.4610    -0.3650    -0.0340 h1         1 HM3       0.044200
     15 H61          2.8210     0.8160    -1.1790 h1         1 HM3       0.044200
@<TRIPOS>BOND
     1     1     3 1   
     2     1     8 1   
     3     1    14 1   
     4     1    15 1   
     5     2     3 ar  
     6     2     7 ar  
     7     3     4 ar  
     8     4     5 ar  
     9     4     9 1   
    10     5     6 ar  
    11     5    10 1   
    12     6     7 ar  
    13     6    11 1   
    14     7    12 1   
    15     8    13 1   
@<TRIPOS>SUBSTRUCTURE
     1 HM3         1 TEMP              0 ****  ****    0 ROOT
