@<TRIPOS>MOLECULE
HM3
   15    15     1     0     0
SMALL
bcc


@<TRIPOS>ATOM
      1 C1           2.7020     0.3200    -0.0010 c3         1 HM3       0.085100
      2 N1           1.2510    -1.5830    -0.0030 nb         1 HM3      -0.678000
      3 C2           1.3130    -0.2550    -0.0090 ca         1 HM3       0.417600
      4 C3           0.1810     0.5510    -0.0300 ca         1 HM3      -0.212300
      5 C4          -1.0530    -0.0770    -0.0480 ca         1 HM3       0.056400
      6 C5          -1.1380    -1.4580    -0.0450 ca         1 HM3      -0.244300
      7 C6           0.0590    -2.1590    -0.0230 ca         1 HM3       0.415200
      8 O1           2.6490     1.7160     0.1010 oh         1 HM3      -0.599800
      9 H3           0.2570     1.6280    -0.0350 ha         1 HM3       0.175000
     10 CL1         -2.4940     0.8730    -0.0750 cl         1 HM3      -0.096400
     11 H4          -2.0860    -1.9770    -0.0590 ha         1 HM3       0.157000
     12 H5           0.0410    -3.2430    -0.0200 h4         1 HM3       0.023100
     13 H6           3.5390     2.0600    -0.0140 ho         1 HM3       0.414000
     14 HOM          3.2520    -0.1360     0.8330 h1         1 HM3       0.044200
     15 H61          3.2050    -0.0070    -0.9200 h1         1 HM3       0.044200
@<TRIPOS>BOND
     1     1     3 1   
     2     1     8 1   
     3     1    14 1   
     4     1    15 1   
     5     2     3 ar  
     6     2     7 ar  
     7     3     4 ar  
     8     4     5 ar  
     9     4     9 1   
    10     5     6 ar  
    11     5    10 1   
    12     6     7 ar  
    13     6    11 1   
    14     7    12 1   
    15     8    13 1   
@<TRIPOS>SUBSTRUCTURE
     1 HM3         1 TEMP              0 ****  ****    0 ROOT
