@<TRIPOS>MOLECULE
HM4
   38    39     1     0     0
SMALL
bcc


@<TRIPOS>ATOM
      1 S            0.2380    -4.7450    10.4040 ss         1 HM4      -0.234300
      2 N1           1.4120    -2.9870     8.9510 nc         1 HM4      -0.659000
      3 N2          -0.7810    -3.5650     8.2270 ns         1 HM4      -0.528400
      4 N3          -3.0690    -3.7970     7.0550 nb         1 HM4      -0.667000
      5 N4          -1.6620    -1.4330     4.6700 ns         1 HM4      -0.471100
      6 C1           1.8290    -4.2550    10.8380 cd         1 HM4      -0.213400
      7 C2           2.2740    -3.3300     9.9560 cc         1 HM4       0.372200
      8 C3           0.3090    -3.6470     9.0580 cd         1 HM4       0.581300
      9 C4          -0.9050    -2.8010     7.1090 c          1 HM4       0.592600
     10 C5          -2.2350    -2.9630     6.4420 ca         1 HM4       0.275800
     11 C6          -4.2700    -4.0190     6.5670 ca         1 HM4       0.369200
     12 C7          -4.7030    -3.3930     5.4040 ca         1 HM4      -0.189300
     13 C8          -3.8600    -2.5260     4.7450 ca         1 HM4      -0.147000
     14 C9          -2.5760    -2.2840     5.2550 ca         1 HM4       0.057300
     15 C10         -1.7810    -0.7440     3.4930 c          1 HM4       0.781100
     16 C11         -0.4390     0.7700     2.1200 c3         1 HM4       0.202800
     17 C12         -1.4510     1.9070     2.0480 c3         1 HM4      -0.110433
     18 C13          0.9560     1.3330     2.3650 c3         1 HM4      -0.110433
     19 C14         -0.4420    -0.0880     0.8620 c3         1 HM4      -0.110433
     20 O1          -0.0300    -2.0620     6.6890 o          1 HM4      -0.560100
     21 O2          -2.7410    -0.7680     2.7590 o          1 HM4      -0.583000
     22 O3          -0.6680    -0.0510     3.3030 os         1 HM4      -0.441900
     23 HN2         -1.6010    -4.1260     8.4380 hn         1 HM4       0.367500
     24 HN4         -0.7820    -1.3530     5.1730 hn         1 HM4       0.379500
     25 H1           2.3320    -4.6700    11.6960 h4         1 HM4       0.180000
     26 H2           3.2460    -2.8590    10.0020 h4         1 HM4       0.044100
     27 H6          -4.9050    -4.7090     7.1070 h4         1 HM4       0.027100
     28 H7          -5.6950    -3.5840     5.0200 ha         1 HM4       0.147000
     29 H8          -4.1930    -2.0410     3.8430 ha         1 HM4       0.180000
     30 H121        -1.4540     2.4860     2.9730 hc         1 HM4       0.051922
     31 H122        -1.1710     2.5830     1.2390 hc         1 HM4       0.051922
     32 H123        -2.4610     1.5560     1.8510 hc         1 HM4       0.051922
     33 H131         1.7010     0.5390     2.4310 hc         1 HM4       0.051922
     34 H132         0.9900     1.9180     3.2850 hc         1 HM4       0.051922
     35 H133         1.2370     1.9900     1.5430 hc         1 HM4       0.051922
     36 H141        -1.4310    -0.4650     0.6130 hc         1 HM4       0.051922
     37 H142        -0.0940     0.5120     0.0200 hc         1 HM4       0.051922
     38 H143         0.2410    -0.9330     0.9650 hc         1 HM4       0.051922
@<TRIPOS>BOND
     1     1     6 1   
     2     1     8 1   
     3     2     7 1   
     4     2     8 2   
     5     3     8 1   
     6     3     9 1   
     7     3    23 1   
     8     4    10 ar  
     9     4    11 ar  
    10     5    14 1   
    11     5    15 1   
    12     5    24 1   
    13     6     7 2   
    14     6    25 1   
    15     7    26 1   
    16     9    10 1   
    17     9    20 2   
    18    10    14 ar  
    19    11    12 ar  
    20    11    27 1   
    21    12    13 ar  
    22    12    28 1   
    23    13    14 ar  
    24    13    29 1   
    25    15    21 2   
    26    15    22 1   
    27    16    17 1   
    28    16    18 1   
    29    16    19 1   
    30    16    22 1   
    31    17    30 1   
    32    17    31 1   
    33    17    32 1   
    34    18    33 1   
    35    18    34 1   
    36    18    35 1   
    37    19    36 1   
    38    19    37 1   
    39    19    38 1   
@<TRIPOS>SUBSTRUCTURE
     1 HM4         1 TEMP              0 ****  ****    0 ROOT
