@<TRIPOS>MOLECULE
HM4
   38    39     1     0     0
SMALL
No Charge or Current Charge


@<TRIPOS>ATOM
      1 S            0.2500    -4.6370    10.5280 ss         1 HM4      -0.089400
      2 N1           1.4900    -2.9750     8.9270 nc         1 HM4      -0.659000
      3 N2          -0.7340    -3.5450     8.2540 ns         1 HM4      -0.461400
      4 N3          -3.1520    -3.8760     7.0990 nb         1 HM4      -0.667000
      5 N4          -1.7540    -1.5050     4.5630 ns         1 HM4      -0.145000
      6 C1           1.8870    -4.1340    10.9010 cd         1 HM4      -0.275000
      7 C2           2.3580    -3.2690     9.9480 cc         1 HM4       0.306900
      8 C3           0.3440    -3.6170     9.0930 cd         1 HM4       0.581300
      9 C4          -0.9070    -2.8310     7.0870 c          1 HM4       0.525600
     10 C5          -2.2930    -3.0320     6.4420 ca         1 HM4       0.210500
     11 C6          -4.3820    -4.0950     6.5850 ca         1 HM4       0.303900
     12 C7          -4.8230    -3.4930     5.4000 ca         1 HM4      -0.106000
     13 C8          -3.9630    -2.6250     4.7090 ca         1 HM4      -0.129000
     14 C9          -2.6680    -2.3780     5.2250 ca         1 HM4       0.030000
     15 C10         -1.8390    -0.7570     3.4070 c          1 HM4       0.665100
     16 C11         -0.3850     0.7860     2.1260 c3         1 HM4       0.226000
     17 C12         -1.3710     1.9820     2.1620 c3         1 HM4      -0.110433
     18 C13          1.0560     1.2860     2.3680 c3         1 HM4      -0.110433
     19 C14         -0.4500    -0.0160     0.8010 c3         1 HM4      -0.110433
     20 O1          -0.0350    -2.1090     6.6180 o          1 HM4      -0.560100
     21 O2          -2.8040    -0.6940     2.6610 o          1 HM4      -0.534000
     22 O3          -0.6460    -0.0950     3.2430 os         1 HM4      -0.465100
     23 HN2         -1.5530    -4.0880     8.4960 hn         1 HM4       0.367500
     24 HN4         -0.8600    -1.4110     5.0300 hn         1 HM4       0.213000
     25 H1           2.4000    -4.4970    11.7830 h4         1 HM4       0.162000
     26 H2           3.3370    -2.8080     9.9370 h4         1 HM4       0.044100
     27 H6          -5.0300    -4.7720     7.1400 h4         1 HM4       0.027100
     28 H7          -5.8220    -3.7000     5.0270 ha         1 HM4       0.129000
     29 H8          -4.3190    -2.1660     3.7920 ha         1 HM4       0.162000
     30 H121        -1.4190     2.4170     3.1670 hc         1 HM4       0.051922
     31 H122        -1.0440     2.7670     1.4700 hc         1 HM4       0.051922
     32 H123        -2.3830     1.6890     1.8620 hc         1 HM4       0.051922
     33 H131         1.7610     0.4460     2.3900 hc         1 HM4       0.051922
     34 H132         1.1290     1.8180     3.3240 hc         1 HM4       0.051922
     35 H133         1.3710     1.9720     1.5720 hc         1 HM4       0.051922
     36 H141        -1.4790    -0.2730     0.5260 hc         1 HM4       0.051922
     37 H142        -0.0330     0.5740    -0.0240 hc         1 HM4       0.051922
     38 H143         0.1300    -0.9440     0.8790 hc         1 HM4       0.051922
@<TRIPOS>BOND
     1     1     6 1   
     2     1     8 1   
     3     2     7 1   
     4     2     8 2   
     5     3     8 1   
     6     3     9 1   
     7     3    23 1   
     8     4    10 ar  
     9     4    11 ar  
    10     5    14 1   
    11     5    15 1   
    12     5    24 1   
    13     6     7 2   
    14     6    25 1   
    15     7    26 1   
    16     9    10 1   
    17     9    20 2   
    18    10    14 ar  
    19    11    12 ar  
    20    11    27 1   
    21    12    13 ar  
    22    12    28 1   
    23    13    14 ar  
    24    13    29 1   
    25    15    21 2   
    26    15    22 1   
    27    16    17 1   
    28    16    18 1   
    29    16    19 1   
    30    16    22 1   
    31    17    30 1   
    32    17    31 1   
    33    17    32 1   
    34    18    33 1   
    35    18    34 1   
    36    18    35 1   
    37    19    36 1   
    38    19    37 1   
    39    19    38 1   
@<TRIPOS>SUBSTRUCTURE
     1 HM4         1 TEMP              0 ****  ****    0 ROOT
