@<TRIPOS>MOLECULE
HM5
   37    38     1     0     0
SMALL
No Charge or Current Charge


@<TRIPOS>ATOM
      1 S            3.9390     1.1790     9.2730 ss         1 HM5      -0.082400
      2 N1           1.8940     1.0130     7.6450 nc         1 HM5      -0.660000
      3 N2           3.9650     1.5920     6.5970 ns         1 HM5      -0.459400
      4 N3           6.0210     2.2820     4.9900 nb         1 HM5      -0.669000
      5 N4           3.4030     2.0730     2.3180 ns         1 HM5      -0.153000
      6 C1           2.3600     0.7620     9.9080 cd         1 HM5      -0.275000
      7 C2           1.4270     0.7270     8.9030 cc         1 HM5       0.305900
      8 C3           3.1920     1.2710     7.6790 cd         1 HM5       0.578300
      9 C4           3.6240     1.7290     5.2680 c          1 HM5       0.528600
     10 C5           4.8130     2.1060     4.3630 ca         1 HM5       0.208500
     11 C6           7.1010     2.6230     4.2550 ca         1 HM5       0.304900
     12 C7           7.0430     2.8120     2.8700 ca         1 HM5      -0.107000
     13 C8           5.8200     2.6360     2.2040 ca         1 HM5      -0.124000
     14 C9           4.6720     2.2660     2.9460 ca         1 HM5       0.014000
     15 C10          3.0110     1.9900     0.9850 c          1 HM5       0.618100
     16 C11          1.4760     1.8110     0.7170 c3         1 HM5      -0.119000
     17 C12          0.6280     1.7290     2.0230 c3         1 HM5      -0.086433
     18 C13          1.2570     0.5010    -0.0910 c3         1 HM5      -0.086433
     19 C14          0.9730     3.0230    -0.1170 c3         1 HM5      -0.086433
     20 O1           2.4810     1.5690     4.8590 o          1 HM5      -0.572100
     21 O2           3.8070     2.0360     0.0540 o          1 HM5      -0.578100
     22 HN2          4.9490     1.7660     6.7590 hn         1 HM5       0.368500
     23 HN4          2.6390     1.9730     2.9760 hn         1 HM5       0.200000
     24 H1           2.2090     0.5710    10.9630 h4         1 HM5       0.163000
     25 H2           0.3760     0.4960     9.0200 h4         1 HM5       0.044100
     26 H6           8.0380     2.7530     4.7960 h4         1 HM5       0.027100
     27 H7           7.9380     3.0950     2.3240 ha         1 HM5       0.129000
     28 H8           5.7900     2.8010     1.1320 ha         1 HM5       0.162000
     29 H121         0.9210     0.8650     2.6340 hc         1 HM5       0.045256
     30 H122        -0.4370     1.6150     1.7880 hc         1 HM5       0.045256
     31 H123         0.7340     2.6380     2.6290 hc         1 HM5       0.045256
     32 H131         1.6230    -0.3680     0.4690 hc         1 HM5       0.045256
     33 H132         1.7880     0.5330    -1.0500 hc         1 HM5       0.045256
     34 H133         0.1920     0.3430    -0.3040 hc         1 HM5       0.045256
     35 H141         1.1300     3.9630     0.4270 hc         1 HM5       0.045256
     36 H142        -0.0980     2.9340    -0.3360 hc         1 HM5       0.045256
     37 H143         1.5060     3.0940    -1.0730 hc         1 HM5       0.045256
@<TRIPOS>BOND
     1     1     6 1   
     2     1     8 1   
     3     2     7 1   
     4     2     8 2   
     5     3     8 1   
     6     3     9 1   
     7     3    22 1   
     8     4    10 ar  
     9     4    11 ar  
    10     5    14 1   
    11     5    15 1   
    12     5    23 1   
    13     6     7 2   
    14     6    24 1   
    15     7    25 1   
    16     9    10 1   
    17     9    20 2   
    18    10    14 ar  
    19    11    12 ar  
    20    11    26 1   
    21    12    13 ar  
    22    12    27 1   
    23    13    14 ar  
    24    13    28 1   
    25    15    16 1   
    26    15    21 2   
    27    16    17 1   
    28    16    18 1   
    29    16    19 1   
    30    17    29 1   
    31    17    30 1   
    32    17    31 1   
    33    18    32 1   
    34    18    33 1   
    35    18    34 1   
    36    19    35 1   
    37    19    36 1   
    38    19    37 1   
@<TRIPOS>SUBSTRUCTURE
     1 HM5         1 TEMP              0 ****  ****    0 ROOT
