@<TRIPOS>MOLECULE
HM5
   37    38     1     0     0
SMALL
bcc


@<TRIPOS>ATOM
      1 S            3.9020     0.8770     9.1070 ss         1 HM5      -0.227300
      2 N1           1.9690     0.5980     7.4450 nc         1 HM5      -0.660000
      3 N2           3.9910     1.4100     6.4840 ns         1 HM5      -0.526400
      4 N3           5.9010     2.2480     4.9640 nb         1 HM5      -0.669000
      5 N4           3.3650     2.1230     2.3510 ns         1 HM5      -0.479100
      6 C1           2.3960     0.2930     9.6960 cd         1 HM5      -0.213400
      7 C2           1.5100     0.2160     8.6750 cc         1 HM5       0.371200
      8 C3           3.2030     0.9670     7.5190 cd         1 HM5       0.578300
      9 C4           3.6240     1.5760     5.1870 c          1 HM5       0.595600
     10 C5           4.7480     2.0690     4.3280 ca         1 HM5       0.273800
     11 C6           6.9630     2.6740     4.3150 ca         1 HM5       0.370200
     12 C7           6.9150     2.9470     2.9530 ca         1 HM5      -0.190300
     13 C8           5.7340     2.7720     2.2660 ca         1 HM5      -0.142000
     14 C9           4.5950     2.3230     2.9500 ca         1 HM5       0.041300
     15 C10          2.9840     2.3430     1.0560 c          1 HM5       0.685100
     16 C11          1.5100     2.0260     0.7860 c3         1 HM5      -0.119000
     17 C12          0.6210     2.9070     1.6750 c3         1 HM5      -0.086433
     18 C13          1.2380     0.5430     1.0790 c3         1 HM5      -0.086433
     19 C14          1.1900     2.3150    -0.6780 c3         1 HM5      -0.086433
     20 O1           2.5040     1.3490     4.7590 o          1 HM5      -0.572100
     21 O2           3.7400     2.7520     0.1980 o          1 HM5      -0.578100
     22 HN2          4.9590     1.6500     6.6720 hn         1 HM5       0.368500
     23 HN4          2.6600     1.7860     2.9980 hn         1 HM5       0.366500
     24 H1           2.2540     0.0460    10.7360 h4         1 HM5       0.181000
     25 H2           0.4890    -0.1220     8.7770 h4         1 HM5       0.044100
     26 H6           7.8740     2.8040     4.8840 h4         1 HM5       0.027100
     27 H7           7.7990     3.2930     2.4360 ha         1 HM5       0.147000
     28 H8           5.6900     2.9800     1.2100 ha         1 HM5       0.180000
     29 H121         0.7540     2.7120     2.7410 hc         1 HM5       0.045256
     30 H122        -0.4270     2.7140     1.4440 hc         1 HM5       0.045256
     31 H123         0.8120     3.9670     1.5040 hc         1 HM5       0.045256
     32 H131         1.3860     0.2800     2.1270 hc         1 HM5       0.045256
     33 H132         1.8740    -0.1070     0.4780 hc         1 HM5       0.045256
     34 H133         0.2000     0.3130     0.8360 hc         1 HM5       0.045256
     35 H141         1.3520     3.3640    -0.9300 hc         1 HM5       0.045256
     36 H142         0.1400     2.0880    -0.8660 hc         1 HM5       0.045256
     37 H143         1.7880     1.7080    -1.3570 hc         1 HM5       0.045256
@<TRIPOS>BOND
     1     1     6 1   
     2     1     8 1   
     3     2     7 1   
     4     2     8 2   
     5     3     8 1   
     6     3     9 1   
     7     3    22 1   
     8     4    10 ar  
     9     4    11 ar  
    10     5    14 1   
    11     5    15 1   
    12     5    23 1   
    13     6     7 2   
    14     6    24 1   
    15     7    25 1   
    16     9    10 1   
    17     9    20 2   
    18    10    14 ar  
    19    11    12 ar  
    20    11    26 1   
    21    12    13 ar  
    22    12    27 1   
    23    13    14 ar  
    24    13    28 1   
    25    15    16 1   
    26    15    21 2   
    27    16    17 1   
    28    16    18 1   
    29    16    19 1   
    30    17    29 1   
    31    17    30 1   
    32    17    31 1   
    33    18    32 1   
    34    18    33 1   
    35    18    34 1   
    36    19    35 1   
    37    19    36 1   
    38    19    37 1   
@<TRIPOS>SUBSTRUCTURE
     1 HM5         1 TEMP              0 ****  ****    0 ROOT
