@<TRIPOS>MOLECULE
HM6
   25    26     1     0     0
SMALL
abcg2


@<TRIPOS>ATOM
      1 O2          41.3250    14.0550    28.5880 o          1 HM6      -0.718750
      2 C1          40.2340    14.6720    28.6930 c          1 HM6       0.609500
      3 O1          39.4450    14.9630    27.7680 o          1 HM6      -0.718750
      4 C2          39.8490    15.1050    30.1220 ca         1 HM6       0.278000
      5 N1          38.7150    15.7870    30.3050 nb         1 HM6      -0.586000
      6 C3          40.6980    14.7790    31.1770 ca         1 HM6      -0.156000
      7 C4          40.3310    15.1600    32.4590 ca         1 HM6      -0.057200
      8 C5          39.1480    15.8550    32.6560 ca         1 HM6      -0.156000
      9 C6          38.3690    16.1580    31.5410 ca         1 HM6       0.278000
     10 C7          37.0550    16.9400    31.7330 c          1 HM6       0.609500
     11 O4          36.7360    17.1820    32.9250 o          1 HM6      -0.718750
     12 O3          36.4240    17.2680    30.7040 o          1 HM6      -0.718750
     13 N2          41.1620    14.8350    33.5620 na         1 HM6       0.259000
     14 C8          42.1040    13.8650    33.6550 cc         1 HM6      -0.169000
     15 C9          42.6150    13.9910    34.9210 cd         1 HM6       0.139300
     16 C10         43.6570    13.1820    35.6070 c3         1 HM6       0.157300
     17 O5          43.0110    12.1710    36.3960 oh         1 HM6      -0.657000
     18 N4          41.9670    15.0260    35.5320 nd         1 HM6      -0.388000
     19 N3          41.0940    15.5340    34.7180 nc         1 HM6      -0.185800
     20 H3          41.6140    14.2490    30.9710 ha         1 HM6       0.136500
     21 H5          38.8210    16.1550    33.6370 ha         1 HM6       0.136500
     22 H8          42.3220    13.1790    32.8570 h4         1 HM6       0.172000
     23 H101        44.3120    12.7240    34.8610 h1         1 HM6       0.019700
     24 H102        44.2600    13.8350    36.2450 h1         1 HM6       0.019700
     25 HC          43.6970    11.6800    36.8660 ho         1 HM6       0.416000
@<TRIPOS>BOND
     1     1     2 1   
     2     2     3 1   
     3     2     4 1   
     4     4     5 ar  
     5     4     6 ar  
     6     5     9 ar  
     7     6     7 ar  
     8     6    20 1   
     9     7     8 ar  
    10     7    13 1   
    11     8     9 ar  
    12     8    21 1   
    13     9    10 1   
    14    10    11 1   
    15    10    12 1   
    16    13    14 1   
    17    13    19 1   
    18    14    15 2   
    19    14    22 1   
    20    15    16 1   
    21    15    18 1   
    22    16    17 1   
    23    16    23 1   
    24    16    24 1   
    25    17    25 1   
    26    18    19 2   
@<TRIPOS>SUBSTRUCTURE
     1 HM6         1 TEMP              0 ****  ****    0 ROOT
