@<TRIPOS>MOLECULE
HM6
   25    26     1     0     0
SMALL
No Charge or Current Charge


@<TRIPOS>ATOM
      1 O2          41.3630    14.0360    28.5340 o          1 HM6      -0.718750
      2 C1          40.2990    14.6280    28.6860 c          1 HM6       0.609500
      3 O1          39.5590    14.8690    27.7360 o          1 HM6      -0.718750
      4 C2          39.8840    15.0790    30.1160 ca         1 HM6       0.278000
      5 N1          38.6990    15.7360    30.3000 nb         1 HM6      -0.586000
      6 C3          40.7360    14.8070    31.2110 ca         1 HM6      -0.156000
      7 C4          40.3760    15.2110    32.5100 ca         1 HM6      -0.057200
      8 C5          39.1520    15.8870    32.6690 ca         1 HM6      -0.156000
      9 C6          38.3250    16.1410    31.5510 ca         1 HM6       0.278000
     10 C7          36.9740    16.8870    31.7450 c          1 HM6       0.609500
     11 O4          36.6470    17.2430    32.8730 o          1 HM6      -0.718750
     12 O3          36.2580    17.1070    30.7720 o          1 HM6      -0.718750
     13 N2          41.2080    14.9490    33.6070 na         1 HM6       0.259000
     14 C8          41.9470    13.8120    33.7700 cc         1 HM6      -0.169000
     15 C9          42.6160    14.0730    34.9360 cd         1 HM6       0.139300
     16 C10         43.6040    13.1790    35.6580 c3         1 HM6       0.157300
     17 O5          43.0300    11.9060    35.9980 oh         1 HM6      -0.657000
     18 N4          42.2710    15.3360    35.4010 nd         1 HM6      -0.388000
     19 N3          41.4110    15.8800    34.5770 nc         1 HM6      -0.185800
     20 H3          41.6780    14.2910    31.0430 ha         1 HM6       0.136500
     21 H5          38.8360    16.2120    33.6570 ha         1 HM6       0.136500
     22 H8          41.9330    12.9620    33.1030 h4         1 HM6       0.172000
     23 H101        44.4790    13.0350    35.0100 h1         1 HM6       0.019700
     24 H102        43.9510    13.6890    36.5670 h1         1 HM6       0.019700
     25 HC          43.7280    11.3960    36.4660 ho         1 HM6       0.416000
@<TRIPOS>BOND
     1     1     2 1   
     2     2     3 1   
     3     2     4 1   
     4     4     5 ar  
     5     4     6 ar  
     6     5     9 ar  
     7     6     7 ar  
     8     6    20 1   
     9     7     8 ar  
    10     7    13 1   
    11     8     9 ar  
    12     8    21 1   
    13     9    10 1   
    14    10    11 1   
    15    10    12 1   
    16    13    14 1   
    17    13    19 1   
    18    14    15 2   
    19    14    22 1   
    20    15    16 1   
    21    15    18 1   
    22    16    17 1   
    23    16    23 1   
    24    16    24 1   
    25    17    25 1   
    26    18    19 2   
@<TRIPOS>SUBSTRUCTURE
     1 HM6         1 TEMP              0 ****  ****    0 ROOT
