@<TRIPOS>MOLECULE
HM7
   25    25     1     0     0
SMALL
No Charge or Current Charge


@<TRIPOS>ATOM
      1 CBS          2.4510     0.3380    -0.0800 c3         1 HM7       0.072600
      2 CBR          1.7160    -1.0210    -0.1330 c3         1 HM7      -0.087700
      3 CAA          0.1990    -0.9540    -0.0610 cc         1 HM7       0.322000
      4 NAB         -0.3840     0.2520     0.0390 nd         1 HM7      -0.530300
      5 CAI         -0.5460    -2.2140    -0.1060 cc         1 HM7       0.607300
      6 OAJ          0.0830    -3.3840    -0.2060 oh         1 HM7      -0.600600
      7 NAH         -1.8470    -2.3140    -0.0540 nd         1 HM7      -0.760100
      8 CAF         -2.6010    -1.1370     0.0520 c          1 HM7       0.729700
      9 OAG         -3.8160    -1.2430     0.0990 o          1 HM7      -0.512100
     10 CA          -1.7930     0.1520     0.0950 cd         1 HM7      -0.132600
     11 C           -2.4820     1.3390     0.1990 c2         1 HM7       0.340700
     12 SAE         -1.6460     2.9170     0.2600 sh         1 HM7      -0.196400
     13 CBU          4.8510     1.8410    -0.0910 c3         1 HM7       0.044900
     14 SBT          4.2810     0.0820    -0.1770 ss         1 HM7      -0.447000
     15 OXT         -3.8120     1.4980     0.2680 oh         1 HM7      -0.461100
     16 HBS1         2.1310     0.9690    -0.9200 h1         1 HM7       0.068700
     17 HBS2         2.2100     0.8570     0.8570 h1         1 HM7       0.068700
     18 HBR1         2.0050    -1.5320    -1.0580 hc         1 HM7       0.076700
     19 HBR2         2.0830    -1.6420     0.6930 hc         1 HM7       0.076700
     20 HAJ         -0.6750    -4.0010    -0.2110 ho         1 HM7       0.497000
     21 HAE         -0.4030     2.3920     0.1720 hs         1 HM7       0.160800
     22 HBU1         4.4380     2.4090    -0.9340 h1         1 HM7       0.060033
     23 HBU2         4.5170     2.2970     0.8490 h1         1 HM7       0.060033
     24 HBU3         5.9470     1.8780    -0.1370 h1         1 HM7       0.060033
     25 HXT         -3.9720     2.4610     0.3350 ho         1 HM7       0.483000
@<TRIPOS>BOND
     1     1     2 1   
     2     1    14 1   
     3     1    16 1   
     4     1    17 1   
     5     2     3 1   
     6     2    18 1   
     7     2    19 1   
     8     3     4 2   
     9     3     5 1   
    10     4    10 1   
    11     5     6 1   
    12     5     7 2   
    13     6    20 1   
    14     7     8 1   
    15     8     9 2   
    16     8    10 1   
    17    10    11 2   
    18    11    12 1   
    19    11    15 1   
    20    12    21 1   
    21    13    14 1   
    22    13    22 1   
    23    13    23 1   
    24    13    24 1   
    25    15    25 1   
@<TRIPOS>SUBSTRUCTURE
     1 HM7         1 TEMP              0 ****  ****    0 ROOT
