@<TRIPOS>MOLECULE
HM7
   25    25     1     0     0
SMALL
abcg2


@<TRIPOS>ATOM
      1 CBS          2.4140     0.2520    -0.0090 c3         1 HM7       0.072600
      2 CBR          1.7820    -1.1290    -0.0350 c3         1 HM7      -0.087700
      3 CAA          0.2850    -1.0720    -0.0180 cc         1 HM7       0.322000
      4 NAB         -0.3380     0.0470    -0.0140 nd         1 HM7      -0.530300
      5 CAI         -0.5140    -2.2910    -0.0110 cc         1 HM7       0.607300
      6 OAJ          0.1700    -3.4170    -0.0200 oh         1 HM7      -0.600600
      7 NAH         -1.8000    -2.3080     0.0020 nd         1 HM7      -0.760100
      8 CAF         -2.5080    -1.1210     0.0080 c          1 HM7       0.729700
      9 OAG         -3.7300    -1.1420     0.0220 o          1 HM7      -0.512100
     10 CA          -1.6990     0.0930    -0.0040 cd         1 HM7      -0.132600
     11 C           -2.2140     1.3780    -0.0100 c2         1 HM7       0.340700
     12 SAE         -1.0640     2.6890    -0.0220 sh         1 HM7      -0.196400
     13 CBU          4.6940     1.8160     0.0080 c3         1 HM7       0.044900
     14 SBT          4.2200     0.0740    -0.0300 ss         1 HM7      -0.447000
     15 OXT         -3.5010     1.5840    -0.0070 oh         1 HM7      -0.461100
     16 HBS1         2.1000     0.8370    -0.8750 h1         1 HM7       0.068700
     17 HBS2         2.1140     0.7960     0.8870 h1         1 HM7       0.068700
     18 HBR1         2.1110    -1.6730    -0.9250 hc         1 HM7       0.076700
     19 HBR2         2.1310    -1.7150     0.8210 hc         1 HM7       0.076700
     20 HAJ         -0.4400    -4.1700    -0.0130 ho         1 HM7       0.497000
     21 HAE         -1.9640     3.6820    -0.0310 hs         1 HM7       0.160800
     22 HBU1         4.3080     2.3490    -0.8600 h1         1 HM7       0.060033
     23 HBU2         4.3420     2.3010     0.9170 h1         1 HM7       0.060033
     24 HBU3         5.7820     1.8620    -0.0120 h1         1 HM7       0.060033
     25 HXT         -3.7470     2.5180    -0.0190 ho         1 HM7       0.483000
@<TRIPOS>BOND
     1     1     2 1   
     2     1    14 1   
     3     1    16 1   
     4     1    17 1   
     5     2     3 1   
     6     2    18 1   
     7     2    19 1   
     8     3     4 2   
     9     3     5 1   
    10     4    10 1   
    11     5     6 1   
    12     5     7 2   
    13     6    20 1   
    14     7     8 1   
    15     8     9 2   
    16     8    10 1   
    17    10    11 2   
    18    11    12 1   
    19    11    15 1   
    20    12    21 1   
    21    13    14 1   
    22    13    22 1   
    23    13    23 1   
    24    13    24 1   
    25    15    25 1   
@<TRIPOS>SUBSTRUCTURE
     1 HM7         1 TEMP              0 ****  ****    0 ROOT
