@<TRIPOS>MOLECULE
HM8
   27    27     1     0     0
SMALL
abcg2


@<TRIPOS>ATOM
      1 N           -1.3600     2.6480    -1.4950 n8         1 HM8      -0.998200
      2 CAA         -0.9870     2.0960    -0.2120 c3         1 HM8       0.144200
      3 CAV         -2.1320     1.2710     0.3950 c3         1 HM8       0.236300
      4 CAW         -3.4180     2.0590     0.5350 c3         1 HM8      -0.091100
      5 OBW         -2.3550     0.1420    -0.4520 os         1 HM8      -0.607700
      6 SBV         -2.1800    -1.3590     0.1950 s6         1 HM8       1.494300
      7 OBZ         -2.4400    -2.1890    -0.9780 o          1 HM8      -0.707533
      8 OBY         -0.8070    -1.4210     0.7040 o          1 HM8      -0.707533
      9 OBX         -3.1960    -1.4460     1.2480 o          1 HM8      -0.707533
     10 CAZ          0.2680     1.2780    -0.2160 cc         1 HM8       0.413300
     11 NBA          1.2100     1.2490     0.6400 nd         1 HM8      -0.610000
     12 OBB          0.4610     0.4010    -1.2480 os         1 HM8      -0.299000
     13 CBC          1.5890    -0.2370    -0.9710 cc         1 HM8       0.502300
     14 OBD          2.0250    -1.1600    -1.7760 oh         1 HM8      -0.567300
     15 CAB          2.0970     0.2750     0.1990 cd         1 HM8       0.129500
     16 C            3.2980    -0.0710     0.8880 cs         1 HM8       0.480000
     17 SBG          4.3720    -1.2270     0.4000 s          1 HM8      -0.617400
     18 OXT          3.4740     0.6420     1.9850 oh         1 HM8      -0.534100
     19 HN1         -0.6090     3.2110    -1.8720 hn         1 HM8       0.407500
     20 HN2         -1.5490     1.9170    -2.1680 hn         1 HM8       0.407500
     21 HAA         -0.7960     2.9200     0.4810 h1         1 HM8       0.075700
     22 HAV         -1.8030     0.9520     1.3890 h1         1 HM8       0.057700
     23 HAW1        -4.1760     1.4510     1.0270 hc         1 HM8       0.039700
     24 HAW2        -3.2500     2.9470     1.1470 hc         1 HM8       0.039700
     25 HAW3        -3.7990     2.3830    -0.4320 hc         1 HM8       0.039700
     26 HBD          1.4420    -1.2840    -2.5390 ho         1 HM8       0.499000
     27 HXT          4.2990     0.3680     2.4120 ho         1 HM8       0.480000
@<TRIPOS>BOND
     1     1     2 1   
     2     1    19 1   
     3     1    20 1   
     4     2     3 1   
     5     2    10 1   
     6     2    21 1   
     7     3     4 1   
     8     3     5 1   
     9     3    22 1   
    10     4    23 1   
    11     4    24 1   
    12     4    25 1   
    13     5     6 1   
    14     6     7 1   
    15     6     8 1   
    16     6     9 1   
    17    10    11 2   
    18    10    12 1   
    19    11    15 1   
    20    12    13 1   
    21    13    14 1   
    22    13    15 2   
    23    14    26 1   
    24    15    16 1   
    25    16    17 2   
    26    16    18 1   
    27    18    27 1   
@<TRIPOS>SUBSTRUCTURE
     1 HM8         1 TEMP              0 ****  ****    0 ROOT
