@<TRIPOS>MOLECULE
HM8
   27    27     1     0     0
SMALL
No Charge or Current Charge


@<TRIPOS>ATOM
      1 N           -1.3740     2.5430    -1.6620 n8         1 HM8      -0.998200
      2 CAA         -0.9990     2.0400    -0.2870 c3         1 HM8       0.144200
      3 CAV         -2.1440     1.2140     0.3890 c3         1 HM8       0.236300
      4 CAW         -3.4200     2.0490     0.6510 c3         1 HM8      -0.091100
      5 OBW         -2.5070     0.1290    -0.4900 os         1 HM8      -0.607700
      6 SBV         -2.5450    -1.3760     0.1660 s6         1 HM8       1.494300
      7 OBZ         -3.0180    -2.2270    -0.9350 o          1 HM8      -0.707533
      8 OBY         -1.1530    -1.6200     0.5670 o          1 HM8      -0.707533
      9 OBX         -3.4840    -1.2600     1.2900 o          1 HM8      -0.707533
     10 CAZ          0.3080     1.2470    -0.2520 cc         1 HM8       0.413300
     11 NBA          1.2120     1.2740     0.7240 nd         1 HM8      -0.610000
     12 OBB          0.6280     0.4500    -1.3160 os         1 HM8      -0.299000
     13 CBC          1.8000    -0.0840    -0.9290 cc         1 HM8       0.502300
     14 OBD          2.3180    -0.9280    -1.8390 oh         1 HM8      -0.567300
     15 CAB          2.2050     0.3890     0.2950 cd         1 HM8       0.129500
     16 C            3.4450     0.0050     0.9620 cs         1 HM8       0.480000
     17 SBG          4.6080    -1.0610     0.4010 s          1 HM8      -0.617400
     18 OXT          3.6460     0.5860     2.1470 oh         1 HM8      -0.534100
     19 HN1         -0.5340     2.8900    -2.1400 hn         1 HM8       0.407500
     20 HN2         -1.6520     1.7240    -2.2180 hn         1 HM8       0.407500
     21 HAA         -0.8270     2.9260     0.3410 h1         1 HM8       0.075700
     22 HAV         -1.7680     0.8550     1.3590 h1         1 HM8       0.057700
     23 HAW1        -4.1700     1.4550     1.1870 hc         1 HM8       0.039700
     24 HAW2        -3.1840     2.9250     1.2660 hc         1 HM8       0.039700
     25 HAW3        -3.8650     2.3980    -0.2880 hc         1 HM8       0.039700
     26 HBD          1.6490    -0.9520    -2.5530 ho         1 HM8       0.499000
     27 HXT          4.5030     0.2250     2.4480 ho         1 HM8       0.480000
@<TRIPOS>BOND
     1     1     2 1   
     2     1    19 1   
     3     1    20 1   
     4     2     3 1   
     5     2    10 1   
     6     2    21 1   
     7     3     4 1   
     8     3     5 1   
     9     3    22 1   
    10     4    23 1   
    11     4    24 1   
    12     4    25 1   
    13     5     6 1   
    14     6     7 1   
    15     6     8 1   
    16     6     9 1   
    17    10    11 2   
    18    10    12 1   
    19    11    15 1   
    20    12    13 1   
    21    13    14 1   
    22    13    15 2   
    23    14    26 1   
    24    15    16 1   
    25    16    17 2   
    26    16    18 1   
    27    18    27 1   
@<TRIPOS>SUBSTRUCTURE
     1 HM8         1 TEMP              0 ****  ****    0 ROOT
