@<TRIPOS>MOLECULE
HM9
   31    31     1     0     0
SMALL
No Charge or Current Charge


@<TRIPOS>ATOM
      1 C           -3.5760    -1.2860    -0.4590 c          1 HM9       0.553200
      2 SAE         -2.9820    -2.9750    -0.1470 sh         1 HM9      -0.326400
      3 CAC         -2.6090    -0.1610    -0.1150 ca         1 HM9       0.146500
      4 NAB         -1.3780    -0.4830     0.4080 nb         1 HM9      -0.556000
      5 CAF         -2.9670     1.2090    -0.3270 ca         1 HM9       0.648300
      6 OAG         -4.1380     1.6350    -0.8290 oh         1 HM9      -0.596300
      7 NAH         -2.1640     2.2480    -0.0470 nb         1 HM9      -0.795000
      8 CAI         -0.9600     1.9230     0.4630 ca         1 HM9       0.629300
      9 OAJ         -0.1690     2.9970     0.7290 oh         1 HM9      -0.620300
     10 CAA         -0.5560     0.5620     0.6970 ca         1 HM9       0.187300
     11 CBW          0.8080     0.1750     1.2740 c3         1 HM9      -0.121700
     12 CBX          1.9090     0.0760     0.1900 c3         1 HM9      -0.095400
     13 CBY          3.2780    -0.3520     0.7580 c3         1 HM9       0.213800
     14 NBZ          4.2770    -0.4140    -0.3160 nu         1 HM9      -0.892400
     15 CCA          5.5200    -0.7500    -0.0730 c2         1 HM9       0.785100
     16 NCC          6.0140    -1.6070    -0.8160 n2         1 HM9      -0.892100
     17 NCB          6.0830     0.3970     0.1420 nv         1 HM9      -1.068200
     18 OXT         -4.7000    -1.1300    -0.9210 o          1 HM9      -0.492100
     19 HAE         -4.1350    -3.5210    -0.5920 hs         1 HM9       0.212800
     20 HAG         -4.0140     2.6040    -0.8260 ho         1 HM9       0.497000
     21 HAJ          0.6820     2.6510     1.0580 ho         1 HM9       0.492000
     22 HBW1         1.1150     0.8850     2.0510 hc         1 HM9       0.063700
     23 HBW2         0.7310    -0.7950     1.7820 hc         1 HM9       0.063700
     24 HBX1         1.5950    -0.6490    -0.5720 hc         1 HM9       0.056200
     25 HBX2         2.0170     1.0440    -0.3150 hc         1 HM9       0.056200
     26 HBY1         3.5920     0.3680     1.5260 h1         1 HM9       0.038200
     27 HBY2         3.1820    -1.3360     1.2360 h1         1 HM9       0.038200
     28 HBZ          3.9750    -0.9470    -1.1230 hn         1 HM9       0.482000
     29 HCC          7.0330    -1.5060    -0.7560 hn         1 HM9       0.381400
     30 HCB1         5.3290     1.0650     0.1500 hn         1 HM9       0.455000
     31 HCB2         6.7720     0.6090    -0.5640 hn         1 HM9       0.455000
@<TRIPOS>BOND
     1     1     2 1   
     2     1     3 1   
     3     1    18 2   
     4     2    19 1   
     5     3     4 ar  
     6     3     5 ar  
     7     4    10 ar  
     8     5     6 1   
     9     5     7 ar  
    10     6    20 1   
    11     7     8 ar  
    12     8     9 1   
    13     8    10 ar  
    14     9    21 1   
    15    10    11 1   
    16    11    12 1   
    17    11    22 1   
    18    11    23 1   
    19    12    13 1   
    20    12    24 1   
    21    12    25 1   
    22    13    14 1   
    23    13    26 1   
    24    13    27 1   
    25    14    15 1   
    26    14    28 1   
    27    15    16 2   
    28    15    17 1   
    29    16    29 1   
    30    17    30 1   
    31    17    31 1   
@<TRIPOS>SUBSTRUCTURE
     1 HM9         1 TEMP              0 ****  ****    0 ROOT
