@<TRIPOS>MOLECULE
HM9
   31    31     1     0     0
SMALL
bcc


@<TRIPOS>ATOM
      1 C           -3.5620    -1.2710    -0.2300 c          1 HM9       0.553200
      2 SAE         -2.7880    -2.8120     0.2460 sh         1 HM9      -0.326400
      3 CAC         -2.6610    -0.1240    -0.0500 ca         1 HM9       0.146500
      4 NAB         -1.4460    -0.3930     0.4180 nb         1 HM9      -0.556000
      5 CAF         -3.0060     1.2030    -0.3360 ca         1 HM9       0.648300
      6 OAG         -4.1960     1.5140    -0.8110 oh         1 HM9      -0.557300
      7 NAH         -2.1410     2.1810    -0.1320 nb         1 HM9      -0.795000
      8 CAI         -0.9520     1.8870     0.3370 ca         1 HM9       0.629300
      9 OAJ         -0.1500     2.9250     0.5150 oh         1 HM9      -0.581300
     10 CAA         -0.5670     0.5520     0.6250 ca         1 HM9       0.187300
     11 CBW          0.8030     0.1910     1.1110 c3         1 HM9      -0.121700
     12 CBX          1.8410     0.1930    -0.0150 c3         1 HM9      -0.095400
     13 CBY          3.2090    -0.2380     0.4880 c3         1 HM9       0.213800
     14 NBZ          4.1570    -0.2480    -0.6100 nu         1 HM9      -0.837200
     15 CCA          5.4890    -0.5490    -0.4410 c2         1 HM9       0.785100
     16 NCC          6.1210    -1.1240    -1.3970 n2         1 HM9      -0.892100
     17 NCB          6.0130    -0.2110     0.7830 nv         1 HM9      -0.957800
     18 OXT         -4.6900    -1.2090    -0.6450 o          1 HM9      -0.492100
     19 HAE         -3.8620    -3.5570    -0.0500 hs         1 HM9       0.212800
     20 HAG         -4.2440     2.4730    -0.9390 ho         1 HM9       0.458000
     21 HAJ          0.6940     2.6700     0.9090 ho         1 HM9       0.453000
     22 HBW1         1.1210     0.8560     1.9220 hc         1 HM9       0.063700
     23 HBW2         0.7450    -0.8060     1.5520 hc         1 HM9       0.063700
     24 HBX1         1.5060    -0.4850    -0.8060 hc         1 HM9       0.056200
     25 HBX2         1.9250     1.1840    -0.4690 hc         1 HM9       0.056200
     26 HBY1         3.5320     0.4650     1.2580 h1         1 HM9       0.038200
     27 HBY2         3.1290    -1.2210     0.9710 h1         1 HM9       0.038200
     28 HBZ          3.7970    -0.6800    -1.4480 hn         1 HM9       0.426800
     29 HCC          7.1080    -1.2040    -1.1800 hn         1 HM9       0.381400
     30 HCB1         5.6180     0.5890     1.2530 hn         1 HM9       0.399800
     31 HCB2         7.0190    -0.2170     0.8360 hn         1 HM9       0.399800
@<TRIPOS>BOND
     1     1     2 1   
     2     1     3 1   
     3     1    18 2   
     4     2    19 1   
     5     3     4 ar  
     6     3     5 ar  
     7     4    10 ar  
     8     5     6 1   
     9     5     7 ar  
    10     6    20 1   
    11     7     8 ar  
    12     8     9 1   
    13     8    10 ar  
    14     9    21 1   
    15    10    11 1   
    16    11    12 1   
    17    11    22 1   
    18    11    23 1   
    19    12    13 1   
    20    12    24 1   
    21    12    25 1   
    22    13    14 1   
    23    13    26 1   
    24    13    27 1   
    25    14    15 1   
    26    14    28 1   
    27    15    16 2   
    28    15    17 1   
    29    16    29 1   
    30    17    30 1   
    31    17    31 1   
@<TRIPOS>SUBSTRUCTURE
     1 HM9         1 TEMP              0 ****  ****    0 ROOT
