@<TRIPOS>MOLECULE
HMA
   15    14     1     0     0
SMALL
abcg2


@<TRIPOS>ATOM
      1 N           -0.7920     0.6850     1.7780 n8         1 HMA      -0.984200
      2 CA           0.4260     0.3270     1.0700 c3         1 HMA       0.083500
      3 CB           1.2700    -0.7520     1.7480 c3         1 HMA      -0.128100
      4 C            0.0260    -0.1520    -0.3170 c          1 HMA       0.613100
      5 O           -0.7700    -1.0590    -0.4880 o          1 HMA      -0.572100
      6 N2           0.6230     0.5170    -1.3170 ns         1 HMA      -0.387400
      7 OH           0.5040     0.0850    -2.6030 oh         1 HMA      -0.423100
      8 HN1         -0.5480     1.0570     2.6880 hn         1 HMA       0.406500
      9 HN2A        -1.3340    -0.1530     1.9570 hn         1 HMA       0.406500
     10 HA           1.0310     1.2340     0.9820 h1         1 HMA       0.059700
     11 HB1          1.5740    -0.4150     2.7390 hc         1 HMA       0.048033
     12 HB2          0.7000    -1.6750     1.8610 hc         1 HMA       0.048033
     13 HB3          2.1750    -0.9790     1.1810 hc         1 HMA       0.048033
     14 HN2          1.3530     1.1960    -1.1610 hn         1 HMA       0.335500
     15 HO          -0.2190     0.5930    -2.9940 ho         1 HMA       0.446000
@<TRIPOS>BOND
     1     1     2 1   
     2     1     8 1   
     3     1     9 1   
     4     2     3 1   
     5     2     4 1   
     6     2    10 1   
     7     3    11 1   
     8     3    12 1   
     9     3    13 1   
    10     4     5 2   
    11     4     6 1   
    12     6     7 1   
    13     6    14 1   
    14     7    15 1   
@<TRIPOS>SUBSTRUCTURE
     1 HMA         1 TEMP              0 ****  ****    0 ROOT
