@<TRIPOS>MOLECULE
HMA
   15    14     1     0     0
SMALL
No Charge or Current Charge


@<TRIPOS>ATOM
      1 N           -0.7650     0.7070     1.9510 n8         1 HMA      -0.984200
      2 CA           0.3810     0.3020     1.0720 c3         1 HMA       0.083500
      3 CB           1.2530    -0.7280     1.8210 c3         1 HMA      -0.128100
      4 C           -0.0080    -0.2160    -0.3650 c          1 HMA       0.613100
      5 O           -0.7380    -1.1880    -0.5450 o          1 HMA      -0.572100
      6 N2           0.5110     0.5250    -1.4260 ns         1 HMA      -0.387400
      7 OH           0.4510     0.0280    -2.7870 oh         1 HMA      -0.423100
      8 HN1         -0.4150     0.9190     2.8940 hn         1 HMA       0.406500
      9 HN2A        -1.3780    -0.1060     2.1000 hn         1 HMA       0.406500
     10 HA           0.9990     1.1990     0.9240 h1         1 HMA       0.059700
     11 HB1          1.5910    -0.3300     2.7860 hc         1 HMA       0.048033
     12 HB2          0.6980    -1.6560     2.0040 hc         1 HMA       0.048033
     13 HB3          2.1440    -0.9750     1.2300 hc         1 HMA       0.048033
     14 HN2          1.2130     1.2390    -1.2380 hn         1 HMA       0.335500
     15 HO           0.0820     0.7890    -3.2970 ho         1 HMA       0.446000
@<TRIPOS>BOND
     1     1     2 1   
     2     1     8 1   
     3     1     9 1   
     4     2     3 1   
     5     2     4 1   
     6     2    10 1   
     7     3    11 1   
     8     3    12 1   
     9     3    13 1   
    10     4     5 2   
    11     4     6 1   
    12     6     7 1   
    13     6    14 1   
    14     7    15 1   
@<TRIPOS>SUBSTRUCTURE
     1 HMA         1 TEMP              0 ****  ****    0 ROOT
