@<TRIPOS>MOLECULE
HMB
   18    17     1     0     0
SMALL
bcc


@<TRIPOS>ATOM
      1 CA           1.0740    -0.4700    -0.2480 c3         1 HMB      -0.207400
      2 CB          -0.1090     0.4300     0.0710 c3         1 HMB      -0.080400
      3 CG          -1.4490    -0.2210    -0.2260 c3         1 HMB       0.318900
      4 C            2.4600     0.1580    -0.0120 c          1 HMB       0.927600
      5 OD1         -1.6420    -1.4190     0.4710 oh         1 HMB      -0.627800
      6 OD2         -2.4440     0.7210     0.0650 os         1 HMB      -0.439600
      7 O            2.5080     1.3130     0.4530 o          1 HMB      -0.844800
      8 HA1          1.0200    -1.3900     0.3430 hc         1 HMB       0.022200
      9 HA2          1.0210    -0.7980    -1.2920 hc         1 HMB       0.022200
     10 HB1         -0.0850     0.7300     1.1240 hc         1 HMB       0.056700
     11 HB2         -0.0400     1.3500    -0.5140 hc         1 HMB       0.056700
     12 HG          -1.5080    -0.5030    -1.2880 h2         1 HMB       0.048700
     13 HE1         -3.7630     0.1240    -1.4320 h1         1 HMB       0.017033
     14 HE2         -4.1330    -0.5050     0.1830 h1         1 HMB       0.017033
     15 HE3         -4.3950     1.2060    -0.1800 h1         1 HMB       0.017033
     16 O4           3.4380    -0.5610    -0.3080 o          1 HMB      -0.844800
     17 HD1         -1.4030    -1.2820     1.3950 ho         1 HMB       0.407000
     18 CE          -3.7370     0.3570    -0.3610 c3         1 HMB       0.134700
@<TRIPOS>BOND
     1     1     2 1   
     2     1     4 1   
     3     1     8 1   
     4     1     9 1   
     5     2     3 1   
     6     2    10 1   
     7     2    11 1   
     8     3     5 1   
     9     3     6 1   
    10     3    12 1   
    11     4     7 1   
    12     4    16 1   
    13     5    17 1   
    14     6    18 1   
    15    13    18 1   
    16    14    18 1   
    17    15    18 1   
@<TRIPOS>SUBSTRUCTURE
     1 HMB         1 TEMP              0 ****  ****    0 ROOT
