@<TRIPOS>MOLECULE
HMB
   18    17     1     0     0
SMALL
No Charge or Current Charge


@<TRIPOS>ATOM
      1 CA           1.1570    -0.6070    -0.1660 c3         1 HMB      -0.207400
      2 CB          -0.0490     0.3570     0.0040 c3         1 HMB      -0.080400
      3 CG          -1.4320    -0.3050    -0.2010 c3         1 HMB       0.365300
      4 C            2.4780     0.1680    -0.0280 c          1 HMB       0.717000
      5 OD1         -1.6860    -1.2430     0.8350 oh         1 HMB      -0.690000
      6 OD2         -2.4110     0.7340    -0.1340 os         1 HMB      -0.486000
      7 O            2.9600     0.2920     1.0880 o          1 HMB      -0.739500
      8 HA1          1.0690    -1.3530     0.6330 hc         1 HMB       0.022200
      9 HA2          1.0650    -1.0280    -1.1750 hc         1 HMB       0.022200
     10 HB1         -0.0100     0.8210     0.9980 hc         1 HMB       0.056700
     11 HB2          0.0500     1.1720    -0.7240 hc         1 HMB       0.056700
     12 HG          -1.4580    -0.8150    -1.1740 h2         1 HMB       0.048700
     13 HE1         -3.7650    -0.0580    -1.5260 h1         1 HMB       0.017033
     14 HE2         -4.1410    -0.4210     0.1770 h1         1 HMB       0.017033
     15 HE3         -4.4190     1.2100    -0.4670 h1         1 HMB       0.017033
     16 O4           2.9580     0.6710    -1.0320 o          1 HMB      -0.739500
     17 HD1         -1.8080    -0.6990     1.6400 ho         1 HMB       0.446000
     18 CE          -3.7460     0.3440    -0.5050 c3         1 HMB       0.157900
@<TRIPOS>BOND
     1     1     2 1   
     2     1     4 1   
     3     1     8 1   
     4     1     9 1   
     5     2     3 1   
     6     2    10 1   
     7     2    11 1   
     8     3     5 1   
     9     3     6 1   
    10     3    12 1   
    11     4     7 1   
    12     4    16 1   
    13     5    17 1   
    14     6    18 1   
    15    13    18 1   
    16    14    18 1   
    17    15    18 1   
@<TRIPOS>SUBSTRUCTURE
     1 HMB         1 TEMP              0 ****  ****    0 ROOT
