@<TRIPOS>MOLECULE
HMC
   24    24     1     0     0
SMALL
No Charge or Current Charge


@<TRIPOS>ATOM
      1 C1           1.6120    -0.2890    -0.7130 c6         1 HMC       0.163500
      2 O1           2.1140     0.9600    -1.2110 oh         1 HMC      -0.699000
      3 C2           0.3850    -0.7410    -1.5660 c6         1 HMC       0.190300
      4 O2           0.7300    -0.5520    -2.9510 oh         1 HMC      -0.679000
      5 C3          -0.8740     0.0860    -1.1510 c6         1 HMC       0.178300
      6 O3          -2.0350    -0.2150    -1.9610 oh         1 HMC      -0.702000
      7 C4          -1.2170    -0.1710     0.3500 c6         1 HMC       0.163500
      8 O4          -2.2660     0.7330     0.7490 oh         1 HMC      -0.721000
      9 C5           0.0180    -0.0530     1.2590 c2         1 HMC      -0.120400
     10 C6           1.2700    -0.1110     0.7570 c2         1 HMC      -0.232200
     11 C7          -0.2520     0.0540     2.7570 c3         1 HMC       0.200800
     12 O7           0.5700    -0.8700     3.4810 oh         1 HMC      -0.659000
     13 H1           2.3910    -1.0610    -0.7970 h1         1 HMC       0.035700
     14 HO1          2.8310     1.2430    -0.5980 ho         1 HMC       0.503000
     15 H2           0.1870    -1.8050    -1.3660 h1         1 HMC       0.035700
     16 HO2          1.3620     0.2070    -2.9070 ho         1 HMC       0.501000
     17 H3          -0.6190     1.1520    -1.2530 h1         1 HMC       0.076700
     18 HO3         -2.7880     0.1960    -1.4730 ho         1 HMC       0.510000
     19 H4          -1.5760    -1.2090     0.4310 h1         1 HMC       0.047700
     20 HO4         -2.6870     0.3540     1.5550 ho         1 HMC       0.505000
     21 H6           2.1270    -0.0640     1.4310 ha         1 HMC       0.197000
     22 H71         -1.3070    -0.1540     2.9770 h1         1 HMC       0.028700
     23 H72         -0.0450     1.0810     3.0860 h1         1 HMC       0.028700
     24 HO7          0.3660    -0.7440     4.4350 ho         1 HMC       0.449000
@<TRIPOS>BOND
     1     1     2 1   
     2     1     3 1   
     3     1    10 1   
     4     1    13 1   
     5     2    14 1   
     6     3     4 1   
     7     3     5 1   
     8     3    15 1   
     9     4    16 1   
    10     5     6 1   
    11     5     7 1   
    12     5    17 1   
    13     6    18 1   
    14     7     8 1   
    15     7     9 1   
    16     7    19 1   
    17     8    20 1   
    18     9    10 2   
    19     9    11 1   
    20    10    21 1   
    21    11    12 1   
    22    11    22 1   
    23    11    23 1   
    24    12    24 1   
@<TRIPOS>SUBSTRUCTURE
     1 HMC         1 TEMP              0 ****  ****    0 ROOT
