@<TRIPOS>MOLECULE
HMC
   24    24     1     0     0
SMALL
abcg2


@<TRIPOS>ATOM
      1 C1           1.5930    -0.1510    -0.6710 c6         1 HMC       0.163500
      2 O1           2.0040     1.1390    -1.0890 oh         1 HMC      -0.699000
      3 C2           0.3870    -0.5690    -1.5110 c6         1 HMC       0.190300
      4 O2           0.5880    -0.3520    -2.8820 oh         1 HMC      -0.679000
      5 C3          -0.8400     0.2060    -1.0660 c6         1 HMC       0.178300
      6 O3          -1.9110    -0.0940    -1.9270 oh         1 HMC      -0.702000
      7 C4          -1.1790    -0.1790     0.3700 c6         1 HMC       0.163500
      8 O4          -2.2000     0.6950     0.8170 oh         1 HMC      -0.721000
      9 C5           0.0280    -0.1450     1.2770 c2         1 HMC      -0.120400
     10 C6           1.2680    -0.1730     0.7950 c2         1 HMC      -0.232200
     11 C7          -0.2830    -0.1480     2.7440 c3         1 HMC       0.200800
     12 O7           0.8790    -0.3490     3.5030 oh         1 HMC      -0.659000
     13 H1           2.4010    -0.8750    -0.8590 h1         1 HMC       0.035700
     14 HO1          2.7310     1.4190    -0.5240 ho         1 HMC       0.503000
     15 H2           0.2120    -1.6370    -1.3040 h1         1 HMC       0.035700
     16 HO2          1.3520    -0.8680    -3.1600 ho         1 HMC       0.501000
     17 H3          -0.6110     1.2830    -1.0890 h1         1 HMC       0.076700
     18 HO3         -2.6790     0.3960    -1.6140 ho         1 HMC       0.510000
     19 H4          -1.5550    -1.2130     0.3550 h1         1 HMC       0.047700
     20 HO4         -2.8500     0.1940     1.3160 ho         1 HMC       0.505000
     21 H6           2.1130    -0.1830     1.4730 ha         1 HMC       0.197000
     22 H71         -1.0330    -0.9310     2.9370 h1         1 HMC       0.028700
     23 H72         -0.7680     0.8030     2.9980 h1         1 HMC       0.028700
     24 HO7          0.6500    -0.2400     4.4300 ho         1 HMC       0.449000
@<TRIPOS>BOND
     1     1     2 1   
     2     1     3 1   
     3     1    10 1   
     4     1    13 1   
     5     2    14 1   
     6     3     4 1   
     7     3     5 1   
     8     3    15 1   
     9     4    16 1   
    10     5     6 1   
    11     5     7 1   
    12     5    17 1   
    13     6    18 1   
    14     7     8 1   
    15     7     9 1   
    16     7    19 1   
    17     8    20 1   
    18     9    10 2   
    19     9    11 1   
    20    10    21 1   
    21    11    12 1   
    22    11    22 1   
    23    11    23 1   
    24    12    24 1   
@<TRIPOS>SUBSTRUCTURE
     1 HMC         1 TEMP              0 ****  ****    0 ROOT
