@<TRIPOS>MOLECULE
HMD
   29    31     1     0     0
SMALL
abcg2


@<TRIPOS>ATOM
      1 BR1         24.1390    26.0580    27.5710 br         1 HMD      -0.018700
      2 O1          24.3870    31.4540    28.3240 o          1 HMD      -0.517000
      3 O2          30.8500    28.4450    26.2110 o          1 HMD      -0.484100
      4 N1          24.7950    28.7860    27.7160 ne         1 HMD      -0.464300
      5 N2          26.5430    31.8800    27.8280 ns         1 HMD      -0.504900
      6 N3          29.4170    28.0500    24.4320 nc         1 HMD      -0.758100
      7 N4          27.4650    28.5450    25.6220 nd         1 HMD      -0.666000
      8 N5          27.3400    27.9040    23.3840 nv         1 HMD      -0.977200
      9 C1          25.2750    27.4940    27.9250 ce         1 HMD       0.108300
     10 C2          26.5300    27.4450    28.3780 c2         1 HMD      -0.217200
     11 C3          26.9870    28.8600    28.4820 c5         1 HMD      -0.128800
     12 C4          25.7640    29.5800    27.9870 cf         1 HMD       0.351300
     13 C5          25.5030    31.0560    28.0370 c          1 HMD       0.497700
     14 C6          27.8070    31.5880    27.1730 c3         1 HMD       0.111000
     15 C7          28.7290    30.6430    27.9270 c3         1 HMD      -0.087400
     16 C8          28.3440    29.1560    27.8380 c3         1 HMD      -0.056000
     17 C9          28.4310    28.7050    26.4310 cc         1 HMD       0.359300
     18 C10         29.7540    28.3920    25.7060 c          1 HMD       0.569200
     19 C11         28.1080    28.1440    24.4110 cd         1 HMD       0.860200
     20 HN2         26.3110    32.8590    27.9080 hn         1 HMD       0.319500
     21 HN51        26.3390    27.9980    23.4580 hn         1 HMD       0.521500
     22 HN52        27.7310    27.6200    22.4980 hn         1 HMD       0.521500
     23 H2          27.1220    26.5780    28.6290 ha         1 HMD       0.221000
     24 H3          27.0840    29.1230    29.5480 hc         1 HMD       0.107700
     25 H61         27.6370    31.2400    26.1500 h1         1 HMD       0.050700
     26 H62         28.3130    32.5470    27.0820 h1         1 HMD       0.050700
     27 H71         29.7380    30.7630    27.5280 hc         1 HMD       0.069700
     28 H72         28.7750    30.9290    28.9790 hc         1 HMD       0.069700
     29 H8          29.0980    28.5990    28.4020 hc         1 HMD       0.089700
@<TRIPOS>BOND
     1     1     9 1   
     2     2    13 2   
     3     3    18 2   
     4     4     9 1   
     5     4    12 2   
     6     5    13 1   
     7     5    14 1   
     8     5    20 1   
     9     6    18 1   
    10     6    19 2   
    11     7    17 2   
    12     7    19 1   
    13     8    19 1   
    14     8    21 1   
    15     8    22 1   
    16     9    10 2   
    17    10    11 1   
    18    10    23 1   
    19    11    12 1   
    20    11    16 1   
    21    11    24 1   
    22    12    13 1   
    23    14    15 1   
    24    14    25 1   
    25    14    26 1   
    26    15    16 1   
    27    15    27 1   
    28    15    28 1   
    29    16    17 1   
    30    16    29 1   
    31    17    18 1   
@<TRIPOS>SUBSTRUCTURE
     1 HMD         1 TEMP              0 ****  ****    0 ROOT
