@<TRIPOS>MOLECULE
HMD
   29    31     1     0     0
SMALL
No Charge or Current Charge


@<TRIPOS>ATOM
      1 Br1         24.5040    25.6830    27.8250 br         1 HMD      -0.018700
      2 O1          24.2740    31.3940    27.9740 o          1 HMD      -0.517000
      3 O2          30.3350    27.2350    26.4940 o          1 HMD      -0.484100
      4 N1          24.9170    28.5420    27.7160 ne         1 HMD      -0.464300
      5 N2          26.4470    31.9300    27.8980 ns         1 HMD      -0.504900
      6 N3          29.0830    27.5810    24.5890 nc         1 HMD      -0.758100
      7 N4          27.5600    29.0910    25.3500 nd         1 HMD      -0.666000
      8 N5          27.5120    28.3350    23.1450 nv         1 HMD      -0.977200
      9 C1          25.4590    27.3160    28.0370 ce         1 HMD       0.108300
     10 C2          26.7120    27.4220    28.4990 c2         1 HMD      -0.217200
     11 C3          27.0690    28.9130    28.5100 c5         1 HMD      -0.128800
     12 C4          25.7760    29.5120    27.8780 cf         1 HMD       0.351300
     13 C5          25.4300    30.9890    27.9190 c          1 HMD       0.497700
     14 C6          27.7580    31.7730    27.2500 c3         1 HMD       0.111000
     15 C7          28.7330    30.7630    27.8950 c3         1 HMD      -0.087400
     16 C8          28.3720    29.2610    27.7540 c3         1 HMD      -0.056000
     17 C9          28.4050    28.7520    26.3170 cc         1 HMD       0.359300
     18 C10         29.4180    27.7710    25.8870 c          1 HMD       0.569200
     19 C11         28.0570    28.3330    24.3310 cd         1 HMD       0.860200
     20 HN2         26.1330    32.8830    28.0430 hn         1 HMD       0.319500
     21 HN51        26.5490    28.6380    23.1400 hn         1 HMD       0.521500
     22 HN52        27.7170    27.5140    22.5950 hn         1 HMD       0.521500
     23 H2          27.3380    26.5870    28.8210 ha         1 HMD       0.221000
     24 H3          27.1760    29.2680    29.5420 hc         1 HMD       0.107700
     25 H61         27.6010    31.5280    26.1930 h1         1 HMD       0.050700
     26 H62         28.2410    32.7590    27.2690 h1         1 HMD       0.050700
     27 H71         29.7230    30.9190    27.4460 hc         1 HMD       0.069700
     28 H72         28.8450    31.0150    28.9570 hc         1 HMD       0.069700
     29 H8          29.1710    28.7320    28.2890 hc         1 HMD       0.089700
@<TRIPOS>BOND
     1     1     9 1   
     2     2    13 2   
     3     3    18 2   
     4     4     9 1   
     5     4    12 2   
     6     5    13 1   
     7     5    14 1   
     8     5    20 1   
     9     6    18 1   
    10     6    19 2   
    11     7    17 2   
    12     7    19 1   
    13     8    19 1   
    14     8    21 1   
    15     8    22 1   
    16     9    10 2   
    17    10    11 1   
    18    10    23 1   
    19    11    12 1   
    20    11    16 1   
    21    11    24 1   
    22    12    13 1   
    23    14    15 1   
    24    14    25 1   
    25    14    26 1   
    26    15    16 1   
    27    15    27 1   
    28    15    28 1   
    29    16    17 1   
    30    16    29 1   
    31    17    18 1   
@<TRIPOS>SUBSTRUCTURE
     1 HMD         1 TEMP              0 ****  ****    0 ROOT
