@<TRIPOS>MOLECULE
HMF
   25    25     1     0     0
SMALL
No Charge or Current Charge


@<TRIPOS>ATOM
      1 N           17.4000   -16.5530    22.4100 n8         1 HMF      -0.870800
      2 CA          17.9540   -15.6990    23.5270 c3         1 HMF       0.012500
      3 C           17.3160   -14.2490    23.7020 c          1 HMF       0.936600
      4 O           16.1420   -14.1550    24.0520 o          1 HMF      -0.841800
      5 OXT         17.9870   -13.2670    23.4000 o          1 HMF      -0.841800
      6 CB          17.9250   -16.5200    24.8470 c3         1 HMF      -0.082400
      7 CG          18.6340   -15.8430    26.0460 c3         1 HMF      -0.025100
      8 C1          20.1280   -15.6300    25.8190 ca         1 HMF      -0.054300
      9 C2          21.0060   -16.7320    25.8050 ca         1 HMF      -0.123500
     10 C6          20.6450   -14.3330    25.6270 ca         1 HMF      -0.123500
     11 C3          22.3830   -16.5400    25.5970 ca         1 HMF      -0.142000
     12 C5          22.0230   -14.1420    25.4200 ca         1 HMF      -0.142000
     13 C4          22.8920   -15.2450    25.4050 ca         1 HMF      -0.152000
     14 H           17.8130   -17.4890    22.4630 hn         1 HMF       0.317800
     15 H2          16.3980   -16.7030    22.5730 hn         1 HMF       0.317800
     16 HA          19.0120   -15.5300    23.2820 h1         1 HMF       0.049700
     17 HB2         16.8820   -16.7140    25.1260 hc         1 HMF       0.018700
     18 HB3         18.3860   -17.5000    24.6760 hc         1 HMF       0.018700
     19 HG2         18.1380   -14.8930    26.2780 hc         1 HMF       0.047200
     20 HG3         18.4910   -16.4740    26.9320 hc         1 HMF       0.047200
     21 HC2         20.6190   -17.7380    25.9550 ha         1 HMF       0.147500
     22 H6          19.9790   -13.4720    25.6350 ha         1 HMF       0.147500
     23 H3          23.0560   -17.3960    25.5870 ha         1 HMF       0.114500
     24 H5          22.4150   -13.1380    25.2710 ha         1 HMF       0.114500
     25 H4          23.9580   -15.0970    25.2440 ha         1 HMF       0.110000
@<TRIPOS>BOND
     1     1     2 1   
     2     1    14 1   
     3     1    15 1   
     4     2     3 1   
     5     2     6 1   
     6     2    16 1   
     7     3     4 1   
     8     3     5 1   
     9     6     7 1   
    10     6    17 1   
    11     6    18 1   
    12     7     8 1   
    13     7    19 1   
    14     7    20 1   
    15     8     9 ar  
    16     8    10 ar  
    17     9    11 ar  
    18     9    21 1   
    19    10    12 ar  
    20    10    22 1   
    21    11    13 ar  
    22    11    23 1   
    23    12    13 ar  
    24    12    24 1   
    25    13    25 1   
@<TRIPOS>SUBSTRUCTURE
     1 HMF         1 TEMP              0 ****  ****    0 ROOT
