@<TRIPOS>MOLECULE
HMF
   25    25     1     0     0
SMALL
bcc


@<TRIPOS>ATOM
      1 N           17.3780   -16.2820    22.3790 n8         1 HMF      -0.870800
      2 CA          17.9180   -15.5780    23.5390 c3         1 HMF       0.012500
      3 C           17.0400   -14.3410    23.8400 c          1 HMF       0.936600
      4 O           15.8060   -14.5240    23.7960 o          1 HMF      -0.841800
      5 OXT         17.6220   -13.2760    24.1290 o          1 HMF      -0.841800
      6 CB          18.0040   -16.4750    24.7840 c3         1 HMF      -0.082400
      7 CG          18.7030   -15.8610    26.0020 c3         1 HMF      -0.025100
      8 C1          20.1830   -15.6640    25.8050 ca         1 HMF      -0.054300
      9 C2          21.0720   -16.7040    26.0740 ca         1 HMF      -0.123500
     10 C6          20.7010   -14.4580    25.3370 ca         1 HMF      -0.123500
     11 C3          22.4380   -16.5470    25.8830 ca         1 HMF      -0.142000
     12 C5          22.0670   -14.2950    25.1460 ca         1 HMF      -0.142000
     13 C4          22.9420   -15.3380    25.4200 ca         1 HMF      -0.152000
     14 H           17.8150   -17.1930    22.3010 hn         1 HMF       0.317800
     15 H2          16.3950   -16.4540    22.5520 hn         1 HMF       0.317800
     16 HA          18.9280   -15.2380    23.2870 h1         1 HMF       0.049700
     17 HB2         16.9880   -16.7660    25.0680 hc         1 HMF       0.018700
     18 HB3         18.5250   -17.4000    24.5140 hc         1 HMF       0.018700
     19 HG2         18.2340   -14.9100    26.2600 hc         1 HMF       0.047200
     20 HG3         18.5470   -16.5250    26.8560 hc         1 HMF       0.047200
     21 HC2         20.6890   -17.6490    26.4430 ha         1 HMF       0.147500
     22 H6          20.0190   -13.6500    25.1040 ha         1 HMF       0.147500
     23 H3          23.1110   -17.3670    26.1020 ha         1 HMF       0.114500
     24 H5          22.4490   -13.3490    24.7830 ha         1 HMF       0.114500
     25 H4          24.0070   -15.2100    25.2750 ha         1 HMF       0.110000
@<TRIPOS>BOND
     1     1     2 1   
     2     1    14 1   
     3     1    15 1   
     4     2     3 1   
     5     2     6 1   
     6     2    16 1   
     7     3     4 1   
     8     3     5 1   
     9     6     7 1   
    10     6    17 1   
    11     6    18 1   
    12     7     8 1   
    13     7    19 1   
    14     7    20 1   
    15     8     9 ar  
    16     8    10 ar  
    17     9    11 ar  
    18     9    21 1   
    19    10    12 ar  
    20    10    22 1   
    21    11    13 ar  
    22    11    23 1   
    23    12    13 ar  
    24    12    24 1   
    25    13    25 1   
@<TRIPOS>SUBSTRUCTURE
     1 HMF         1 TEMP              0 ****  ****    0 ROOT
