@<TRIPOS>MOLECULE
HMH
   19    19     1     0     0
SMALL
No Charge or Current Charge


@<TRIPOS>ATOM
      1 CM2          0.4280     0.0080     3.3380 c3         1 HMH      -0.135400
      2 N1A          1.4300    -0.4290     1.1490 nb         1 HMH      -0.218000
      3 C2A          0.3130    -0.0900     1.8270 ca         1 HMH       0.178300
      4 N3A         -0.8930     0.1830     1.2870 nb         1 HMH      -0.273000
      5 C4A         -0.9830     0.1010    -0.0470 ca         1 HMH       0.383900
      6 N4A         -2.2070     0.3940    -0.5570 nv         1 HMH      -1.071900
      7 C5A          0.1110    -0.2460    -0.8560 ca         1 HMH      -0.271300
      8 C6A          1.3230    -0.5080    -0.1920 ca         1 HMH       0.161900
      9 C7A          0.0220    -0.3650    -2.3670 c3         1 HMH       0.233900
     10 O1           0.0120     0.9360    -2.9550 oh         1 HMH      -0.654000
     11 HCM1         0.6830     1.0300     3.6420 hc         1 HMH       0.057700
     12 HCM2        -0.5140    -0.2630     3.8290 hc         1 HMH       0.057700
     13 HCM3         1.2050    -0.6610     3.7260 hc         1 HMH       0.057700
     14 HN41        -2.8760     0.8460     0.0610 hn         1 HMH       0.485500
     15 HN42        -2.2480     0.6740    -1.5350 hn         1 HMH       0.485500
     16 HC6          2.2230    -0.7860    -0.7380 h4         1 HMH       0.037100
     17 HC71         0.8810    -0.9400    -2.7380 h1         1 HMH       0.017200
     18 HC72        -0.8850    -0.9180    -2.6420 h1         1 HMH       0.017200
     19 HO1          0.0250     0.8030    -3.9290 ho         1 HMH       0.448000
@<TRIPOS>BOND
     1     1     3 1   
     2     1    11 1   
     3     1    12 1   
     4     1    13 1   
     5     2     3 ar  
     6     2     8 ar  
     7     3     4 ar  
     8     4     5 ar  
     9     5     6 1   
    10     5     7 ar  
    11     6    14 1   
    12     6    15 1   
    13     7     8 ar  
    14     7     9 1   
    15     8    16 1   
    16     9    10 1   
    17     9    17 1   
    18     9    18 1   
    19    10    19 1   
@<TRIPOS>SUBSTRUCTURE
     1 HMH         1 TEMP              0 ****  ****    0 ROOT
