@<TRIPOS>MOLECULE
HMH
   19    19     1     0     0
SMALL
abcg2


@<TRIPOS>ATOM
      1 CM2          0.4790    -0.0000     3.2960 c3         1 HMH      -0.135400
      2 N1A          1.4480    -0.0710     1.0820 nb         1 HMH      -0.218000
      3 C2A          0.3420    -0.0190     1.8050 ca         1 HMH       0.178300
      4 N3A         -0.8940     0.0320     1.3220 nb         1 HMH      -0.273000
      5 C4A         -1.0520     0.0360     0.0010 ca         1 HMH       0.383900
      6 N4A         -2.3110     0.1250    -0.4710 nv         1 HMH      -1.071900
      7 C5A          0.0630    -0.0150    -0.8690 ca         1 HMH      -0.271300
      8 C6A          1.2850    -0.0690    -0.2480 ca         1 HMH       0.161900
      9 C7A         -0.1210    -0.0090    -2.3560 c3         1 HMH       0.233900
     10 O1           1.1310    -0.0260    -2.9870 oh         1 HMH      -0.654000
     11 HCM1         0.2260     0.9870     3.6870 hc         1 HMH       0.057700
     12 HCM2        -0.2030    -0.7130     3.7580 hc         1 HMH       0.057700
     13 HCM3         1.4970    -0.2350     3.5990 hc         1 HMH       0.057700
     14 HN41        -3.0690    -0.0110     0.1760 hn         1 HMH       0.485500
     15 HN42        -2.5170    -0.0910    -1.4310 hn         1 HMH       0.485500
     16 HC6          2.1940    -0.1110    -0.8370 h4         1 HMH       0.037100
     17 HC71        -0.7290    -0.8790    -2.6460 h1         1 HMH       0.017200
     18 HC72        -0.7040     0.8810    -2.6400 h1         1 HMH       0.017200
     19 HO1          0.9840    -0.0440    -3.9370 ho         1 HMH       0.448000
@<TRIPOS>BOND
     1     1     3 1   
     2     1    11 1   
     3     1    12 1   
     4     1    13 1   
     5     2     3 ar  
     6     2     8 ar  
     7     3     4 ar  
     8     4     5 ar  
     9     5     6 1   
    10     5     7 ar  
    11     6    14 1   
    12     6    15 1   
    13     7     8 ar  
    14     7     9 1   
    15     8    16 1   
    16     9    10 1   
    17     9    17 1   
    18     9    18 1   
    19    10    19 1   
@<TRIPOS>SUBSTRUCTURE
     1 HMH         1 TEMP              0 ****  ****    0 ROOT
