@<TRIPOS>MOLECULE
HMI
   24    23     1     0     0
SMALL
No Charge or Current Charge


@<TRIPOS>ATOM
      1 N           -0.4440     0.6070    -2.4010 ns         1 HMI      -0.366400
      2 OH          -0.6800     0.3050    -3.8000 oh         1 HMI      -0.465100
      3 C1          -0.2730    -0.4060    -1.4620 c          1 HMI       0.602100
      4 O1          -0.5420    -1.5750    -1.7110 o          1 HMI      -0.615100
      5 CA           0.2340     0.0650    -0.1040 c3         1 HMI      -0.290700
      6 CB          -0.7150    -0.3530     1.0580 c3         1 HMI      -0.028400
      7 CG          -0.2840     0.1100     2.4790 c3         1 HMI      -0.062700
      8 CD1         -0.2050     1.6500     2.6160 c3         1 HMI      -0.081100
      9 CD2         -1.2180    -0.4850     3.5580 c3         1 HMI      -0.081100
     10 C            1.6670    -0.4290     0.0500 c          1 HMI       0.726000
     11 O            1.8710    -1.6190     0.2350 o          1 HMI      -0.716000
     12 OXT          2.5580     0.4050     0.0090 o          1 HMI      -0.716000
     13 HN          -0.0840     1.5380    -2.1940 hn         1 HMI       0.351500
     14 HOH         -1.4660     0.8580    -4.0230 ho         1 HMI       0.426000
     15 HA           0.2760     1.1590    -0.1490 hc         1 HMI       0.050700
     16 HB1         -0.8080    -1.4470     1.0600 hc         1 HMI       0.036700
     17 HB2         -1.7200     0.0370     0.8490 hc         1 HMI       0.036700
     18 HG           0.7200    -0.2890     2.6750 hc         1 HMI       0.077700
     19 HD11         0.0510     1.9330     3.6440 hc         1 HMI       0.019200
     20 HD12         0.5660     2.0680     1.9600 hc         1 HMI       0.019200
     21 HD13        -1.1660     2.1140     2.3630 hc         1 HMI       0.019200
     22 HD21        -2.2450    -0.1240     3.4280 hc         1 HMI       0.019200
     23 HD22        -1.2290    -1.5800     3.5010 hc         1 HMI       0.019200
     24 HD23        -0.8800    -0.2040     4.5630 hc         1 HMI       0.019200
@<TRIPOS>BOND
     1     1     2 1   
     2     1     3 1   
     3     1    13 1   
     4     2    14 1   
     5     3     4 2   
     6     3     5 1   
     7     5     6 1   
     8     5    10 1   
     9     5    15 1   
    10     6     7 1   
    11     6    16 1   
    12     6    17 1   
    13     7     8 1   
    14     7     9 1   
    15     7    18 1   
    16     8    19 1   
    17     8    20 1   
    18     8    21 1   
    19     9    22 1   
    20     9    23 1   
    21     9    24 1   
    22    10    11 1   
    23    10    12 1   
@<TRIPOS>SUBSTRUCTURE
     1 HMI         1 TEMP              0 ****  ****    0 ROOT
