@<TRIPOS>MOLECULE
HMI
   24    23     1     0     0
SMALL
bcc


@<TRIPOS>ATOM
      1 N           -0.1320     0.6270    -2.4020 ns         1 HMI      -0.433400
      2 OH          -0.3960     0.2280    -3.6880 oh         1 HMI      -0.426100
      3 C1          -0.5700    -0.1690    -1.3900 c          1 HMI       0.669100
      4 O1          -1.4150    -1.0320    -1.5390 o          1 HMI      -0.615100
      5 CA           0.0810     0.1670    -0.0600 c3         1 HMI      -0.290700
      6 CB          -0.7240    -0.3810     1.1080 c3         1 HMI      -0.028400
      7 CG          -0.2630     0.0980     2.4860 c3         1 HMI      -0.062700
      8 CD1         -0.3340     1.6160     2.6330 c3         1 HMI      -0.081100
      9 CD2         -1.1040    -0.5770     3.5660 c3         1 HMI      -0.081100
     10 C            1.5600    -0.3360    -0.1310 c          1 HMI       0.936600
     11 O            1.8460    -1.3660     0.4960 o          1 HMI      -0.821300
     12 OXT          2.3200     0.3460    -0.8500 o          1 HMI      -0.821300
     13 HN           0.7950     1.0280    -2.2900 hn         1 HMI       0.351500
     14 HOH         -1.0720     0.8340    -4.0110 ho         1 HMI       0.387000
     15 HA           0.1270     1.2580     0.0040 hc         1 HMI       0.050700
     16 HB1         -0.6940    -1.4720     1.0860 hc         1 HMI       0.036700
     17 HB2         -1.7760    -0.1000     0.9880 hc         1 HMI       0.036700
     18 HG           0.7760    -0.2120     2.6290 hc         1 HMI       0.077700
     19 HD11        -0.0730     1.9200     3.6480 hc         1 HMI       0.019200
     20 HD12         0.3520     2.1310     1.9600 hc         1 HMI       0.019200
     21 HD13        -1.3420     1.9840     2.4270 hc         1 HMI       0.019200
     22 HD21        -2.1600    -0.3110     3.4630 hc         1 HMI       0.019200
     23 HD22        -1.0320    -1.6650     3.5050 hc         1 HMI       0.019200
     24 HD23        -0.7860    -0.2780     4.5660 hc         1 HMI       0.019200
@<TRIPOS>BOND
     1     1     2 1   
     2     1     3 1   
     3     1    13 1   
     4     2    14 1   
     5     3     4 2   
     6     3     5 1   
     7     5     6 1   
     8     5    10 1   
     9     5    15 1   
    10     6     7 1   
    11     6    16 1   
    12     6    17 1   
    13     7     8 1   
    14     7     9 1   
    15     7    18 1   
    16     8    19 1   
    17     8    20 1   
    18     8    21 1   
    19     9    22 1   
    20     9    23 1   
    21     9    24 1   
    22    10    11 1   
    23    10    12 1   
@<TRIPOS>SUBSTRUCTURE
     1 HMI         1 TEMP              0 ****  ****    0 ROOT
