@<TRIPOS>MOLECULE
HMJ
   36    38     1     0     0
SMALL
No Charge or Current Charge


@<TRIPOS>ATOM
      1 C10          0.1140     0.3580     0.2950 ca         1 HMJ      -0.094000
      2 C15          5.0270    -0.2690    -0.2870 ca         1 HMJ      -0.118000
      3 C17          4.5170     2.1340    -0.1260 ca         1 HMJ      -0.139000
      4 C01         -5.1380     0.3220    -1.6130 c3         1 HMJ       0.149100
      5 C03         -6.0490     1.8570     0.0730 c3         1 HMJ       0.149100
      6 C04         -4.6490    -0.0390     0.8040 c3         1 HMJ       0.166800
      7 C05         -3.3820    -0.9200     0.6230 c3         1 HMJ       0.165600
      8 C07         -0.9480    -0.5700     0.3750 ca         1 HMJ       0.124100
      9 C08         -0.6860    -1.9690     0.2850 ca         1 HMJ      -0.176000
     10 C09          0.6340    -2.4490     0.1150 ca         1 HMJ      -0.075000
     11 C11          1.4210    -0.1340     0.1260 cp         1 HMJ      -0.055000
     12 C12          1.6600    -1.5040     0.0400 ca         1 HMJ       0.047100
     13 C14          3.6580    -0.5120    -0.1430 ca         1 HMJ       0.093100
     14 C16          5.4540     1.0790    -0.2770 ca         1 HMJ      -0.082000
     15 C18          3.1370     1.8620     0.0180 ca         1 HMJ      -0.049000
     16 C19          2.7280     0.5160     0.0070 cp         1 HMJ      -0.100000
     17 N02         -4.9410     0.9450    -0.2830 n3         1 HMJ      -0.699600
     18 O06         -2.2220    -0.0670     0.5400 os         1 HMJ      -0.329100
     19 O13          3.0120    -1.7310    -0.1220 os         1 HMJ      -0.182200
     20 H1          -0.0750     1.4260     0.3620 ha         1 HMJ       0.137000
     21 H2           5.7340    -1.0870    -0.4020 ha         1 HMJ       0.132000
     22 H3           4.8640     3.1640    -0.1200 ha         1 HMJ       0.116000
     23 H4          -5.9880    -0.3730    -1.5980 h1         1 HMJ       0.031033
     24 H5          -5.3370     1.0900    -2.3730 h1         1 HMJ       0.031033
     25 H6          -4.2440    -0.2300    -1.9300 h1         1 HMJ       0.031033
     26 H7          -6.9920     1.3050     0.1830 h1         1 HMJ       0.031033
     27 H8          -5.8400     2.3720     1.0200 h1         1 HMJ       0.031033
     28 H9          -6.1870     2.6230    -0.7030 h1         1 HMJ       0.031033
     29 H10         -5.5080    -0.7120     0.9260 h1         1 HMJ       0.040700
     30 H11         -4.5360     0.4960     1.7560 h1         1 HMJ       0.040700
     31 H12         -3.2970    -1.5950     1.4840 h1         1 HMJ       0.033200
     32 H13         -3.4810    -1.5330    -0.2820 h1         1 HMJ       0.033200
     33 H14         -1.4920    -2.6950     0.3450 ha         1 HMJ       0.118000
     34 H15          0.8460    -3.5130     0.0450 ha         1 HMJ       0.130000
     35 H16          6.5110     1.3090    -0.3860 ha         1 HMJ       0.115000
     36 H17          2.4150     2.6660     0.1350 ha         1 HMJ       0.121000
@<TRIPOS>BOND
     1     1     8 ar  
     2     1    11 ar  
     3     1    20 1   
     4     2    13 ar  
     5     2    14 ar  
     6     2    21 1   
     7     3    14 ar  
     8     3    15 ar  
     9     3    22 1   
    10     4    17 1   
    11     4    23 1   
    12     4    24 1   
    13     4    25 1   
    14     5    17 1   
    15     5    26 1   
    16     5    27 1   
    17     5    28 1   
    18     6     7 1   
    19     6    17 1   
    20     6    29 1   
    21     6    30 1   
    22     7    18 1   
    23     7    31 1   
    24     7    32 1   
    25     8     9 ar  
    26     8    18 1   
    27     9    10 ar  
    28     9    33 1   
    29    10    12 ar  
    30    10    34 1   
    31    11    12 ar  
    32    11    16 1   
    33    12    19 1   
    34    13    16 ar  
    35    13    19 1   
    36    14    35 1   
    37    15    16 ar  
    38    15    36 1   
@<TRIPOS>SUBSTRUCTURE
     1 HMJ         1 TEMP              0 ****  ****    0 ROOT
