@<TRIPOS>MOLECULE
HMJ
   36    38     1     0     0
SMALL
abcg2


@<TRIPOS>ATOM
      1 C10          0.0360     0.3950     0.3230 ca         1 HMJ      -0.094000
      2 C15          4.8880    -0.3010    -0.3150 ca         1 HMJ      -0.118000
      3 C17          4.4410     2.0870    -0.2000 ca         1 HMJ      -0.139000
      4 C01         -4.8930     0.4080    -1.5720 c3         1 HMJ       0.149100
      5 C03         -5.9670     1.7370     0.0920 c3         1 HMJ       0.149100
      6 C04         -4.6080    -0.0870     0.7730 c3         1 HMJ       0.166800
      7 C05         -3.3450    -0.9020     0.6020 c3         1 HMJ       0.165600
      8 C07         -0.9970    -0.5350     0.4250 ca         1 HMJ       0.124100
      9 C08         -0.7240    -1.9080     0.3520 ca         1 HMJ      -0.176000
     10 C09          0.5740    -2.3780     0.1800 ca         1 HMJ      -0.075000
     11 C11          1.3300    -0.0700     0.1500 cp         1 HMJ      -0.055000
     12 C12          1.5790    -1.4420     0.0820 ca         1 HMJ       0.047100
     13 C14          3.5300    -0.4960    -0.1430 ca         1 HMJ       0.093100
     14 C16          5.3280     1.0150    -0.3410 ca         1 HMJ      -0.082000
     15 C18          3.0840     1.8690    -0.0280 ca         1 HMJ      -0.049000
     16 C19          2.6230     0.5570     0.0010 cp         1 HMJ      -0.100000
     17 N02         -4.8040     0.9390    -0.2290 n3         1 HMJ      -0.699600
     18 O06         -2.2350    -0.0250     0.5960 os         1 HMJ      -0.329100
     19 O13          2.9070    -1.7020    -0.0940 os         1 HMJ      -0.182200
     20 H1          -0.1800     1.4550     0.3790 ha         1 HMJ       0.137000
     21 H2           5.5740    -1.1310    -0.4240 ha         1 HMJ       0.132000
     22 H3           4.8230     3.0990    -0.2280 ha         1 HMJ       0.116000
     23 H4          -5.6980    -0.3350    -1.6950 h1         1 HMJ       0.031033
     24 H5          -5.0830     1.2210    -2.2730 h1         1 HMJ       0.031033
     25 H6          -3.9570    -0.0610    -1.8740 h1         1 HMJ       0.031033
     26 H7          -6.9070     1.1610     0.0900 h1         1 HMJ       0.031033
     27 H8          -5.8560     2.1820     1.0820 h1         1 HMJ       0.031033
     28 H9          -6.0750     2.5490    -0.6280 h1         1 HMJ       0.031033
     29 H10         -5.4430    -0.8090     0.7980 h1         1 HMJ       0.040700
     30 H11         -4.5880     0.3940     1.7560 h1         1 HMJ       0.040700
     31 H12         -3.2810    -1.6110     1.4340 h1         1 HMJ       0.033200
     32 H13         -3.3750    -1.4900    -0.3220 h1         1 HMJ       0.033200
     33 H14         -1.5180    -2.6370     0.4290 ha         1 HMJ       0.118000
     34 H15          0.7710    -3.4400     0.1260 ha         1 HMJ       0.130000
     35 H16          6.3840     1.2130    -0.4730 ha         1 HMJ       0.115000
     36 H17          2.4000     2.7010     0.0810 ha         1 HMJ       0.121000
@<TRIPOS>BOND
     1     1     8 ar  
     2     1    11 ar  
     3     1    20 1   
     4     2    13 ar  
     5     2    14 ar  
     6     2    21 1   
     7     3    14 ar  
     8     3    15 ar  
     9     3    22 1   
    10     4    17 1   
    11     4    23 1   
    12     4    24 1   
    13     4    25 1   
    14     5    17 1   
    15     5    26 1   
    16     5    27 1   
    17     5    28 1   
    18     6     7 1   
    19     6    17 1   
    20     6    29 1   
    21     6    30 1   
    22     7    18 1   
    23     7    31 1   
    24     7    32 1   
    25     8     9 ar  
    26     8    18 1   
    27     9    10 ar  
    28     9    33 1   
    29    10    12 ar  
    30    10    34 1   
    31    11    12 ar  
    32    11    16 1   
    33    12    19 1   
    34    13    16 ar  
    35    13    19 1   
    36    14    35 1   
    37    15    16 ar  
    38    15    36 1   
@<TRIPOS>SUBSTRUCTURE
     1 HMJ         1 TEMP              0 ****  ****    0 ROOT
