@<TRIPOS>MOLECULE
HMK
   34    38     1     0     0
SMALL
No Charge or Current Charge


@<TRIPOS>ATOM
      1 C1           0.5810    -1.6130    -0.8840 c6         1 HMK       0.130600
      2 O1           2.0060    -1.7920    -0.8280 os         1 HMK      -0.327100
      3 C2           2.7650    -0.7290    -0.3950 ca         1 HMK       0.189100
      4 C3           2.2060     0.3020     0.4020 ca         1 HMK      -0.201300
      5 C4           0.7540     0.2680     0.9020 c5         1 HMK       0.226600
      6 C5           0.0440    -1.0820     0.4680 c5         1 HMK       0.186300
      7 C6           4.1170    -0.6910    -0.7620 ca         1 HMK      -0.185000
      8 C7           4.9250     0.3790    -0.3620 ca         1 HMK       0.181100
      9 C8           4.3840     1.4130     0.4130 ca         1 HMK      -0.241000
     10 C9           3.0330     1.3720     0.7970 ca         1 HMK      -0.007000
     11 O2          -0.0210     1.3810     0.3480 os         1 HMK      -0.321100
     12 O5           0.1040    -2.0820     1.4930 oh         1 HMK      -0.626000
     13 O6           6.2340     0.4120    -0.7290 oh         1 HMK      -0.528100
     14 C10         -1.2820     0.8660     0.2290 ca         1 HMK       0.140100
     15 C11         -1.3350    -0.5200     0.3040 ca         1 HMK      -0.220300
     16 C12         -2.4310     1.6430     0.0060 ca         1 HMK      -0.120000
     17 C13         -3.6430     0.9470    -0.1160 ca         1 HMK       0.094100
     18 C14         -3.7060    -0.4230    -0.0420 ca         1 HMK       0.010100
     19 C15         -2.5590    -1.2100     0.1590 ca         1 HMK      -0.028000
     20 O3          -4.8580     1.5070    -0.3450 os         1 HMK      -0.340100
     21 C16         -5.7630     0.3470    -0.3020 c5         1 HMK       0.372600
     22 O4          -4.9680    -0.8900    -0.2170 os         1 HMK      -0.342100
     23 H11          0.1030    -2.5670    -1.1480 h1         1 HMK       0.070700
     24 H12A         0.3530    -0.8910    -1.6810 h1         1 HMK       0.070700
     25 H4           0.7270     0.3590     1.9970 h1         1 HMK       0.088700
     26 H6           4.5350    -1.4900    -1.3660 ha         1 HMK       0.145000
     27 H8           5.0040     2.2480     0.7290 ha         1 HMK       0.118000
     28 H9           2.6270     2.1740     1.4120 ha         1 HMK       0.119000
     29 HO5         -0.5030    -2.8040     1.2260 ho         1 HMK       0.455000
     30 HO6          6.6340     1.2290    -0.3600 ho         1 HMK       0.468000
     31 H12         -2.3830     2.7250    -0.0670 ha         1 HMK       0.153000
     32 H15         -2.6210    -2.2950     0.1910 ha         1 HMK       0.135000
     33 H161        -6.3980     0.4240     0.5890 h2         1 HMK       0.066700
     34 H162        -6.3840     0.3280    -1.2050 h2         1 HMK       0.066700
@<TRIPOS>BOND
     1     1     2 1   
     2     1     6 1   
     3     1    23 1   
     4     1    24 1   
     5     2     3 1   
     6     3     4 ar  
     7     3     7 ar  
     8     4     5 1   
     9     4    10 ar  
    10     5     6 1   
    11     5    11 1   
    12     5    25 1   
    13     6    12 1   
    14     6    15 1   
    15     7     8 ar  
    16     7    26 1   
    17     8     9 ar  
    18     8    13 1   
    19     9    10 ar  
    20     9    27 1   
    21    10    28 1   
    22    11    14 1   
    23    12    29 1   
    24    13    30 1   
    25    14    15 ar  
    26    14    16 ar  
    27    15    19 ar  
    28    16    17 ar  
    29    16    31 1   
    30    17    18 ar  
    31    17    20 1   
    32    18    19 ar  
    33    18    22 1   
    34    19    32 1   
    35    20    21 1   
    36    21    22 1   
    37    21    33 1   
    38    21    34 1   
@<TRIPOS>SUBSTRUCTURE
     1 HMK         1 TEMP              0 ****  ****    0 ROOT
