@<TRIPOS>MOLECULE
HMK
   34    38     1     0     0
SMALL
abcg2


@<TRIPOS>ATOM
      1 C1           0.5880    -1.5290    -0.8850 c6         1 HMK       0.130600
      2 O1           1.9850    -1.7440    -0.8220 os         1 HMK      -0.327100
      3 C2           2.7130    -0.6950    -0.3850 ca         1 HMK       0.189100
      4 C3           2.1590     0.3220     0.3950 ca         1 HMK      -0.201300
      5 C4           0.7390     0.2590     0.8460 c5         1 HMK       0.226600
      6 C5           0.0290    -1.0470     0.4500 c5         1 HMK       0.186300
      7 C6           4.0610    -0.6820    -0.7300 ca         1 HMK      -0.185000
      8 C7           4.8710     0.3610    -0.3030 ca         1 HMK       0.181100
      9 C8           4.3340     1.3940     0.4690 ca         1 HMK      -0.241000
     10 C9           2.9970     1.3530     0.8110 ca         1 HMK      -0.007000
     11 O2          -0.0470     1.3160     0.2620 os         1 HMK      -0.321100
     12 O5           0.2230    -1.9760     1.4750 oh         1 HMK      -0.626000
     13 O6           6.1660     0.3300    -0.6640 oh         1 HMK      -0.528100
     14 C10         -1.3080     0.8340     0.1290 ca         1 HMK       0.140100
     15 C11         -1.3750    -0.5420     0.2560 ca         1 HMK      -0.220300
     16 C12         -2.4250     1.6340    -0.1020 ca         1 HMK      -0.120000
     17 C13         -3.6070     0.9340    -0.2070 ca         1 HMK       0.094100
     18 C14         -3.6880    -0.4470    -0.0840 ca         1 HMK       0.010100
     19 C15         -2.5820    -1.2300     0.1470 ca         1 HMK      -0.028000
     20 O3          -4.8420     1.4340    -0.4450 os         1 HMK      -0.340100
     21 C16         -5.7460     0.3600    -0.2110 c5         1 HMK       0.372600
     22 O4          -4.9830    -0.8330    -0.2550 os         1 HMK      -0.342100
     23 H11          0.1370    -2.4790    -1.1780 h1         1 HMK       0.070700
     24 H12A         0.3600    -0.7950    -1.6670 h1         1 HMK       0.070700
     25 H4           0.6810     0.3660     1.9370 h1         1 HMK       0.088700
     26 H6           4.4720    -1.4840    -1.3300 ha         1 HMK       0.145000
     27 H8           4.9590     2.2110     0.8100 ha         1 HMK       0.118000
     28 H9           2.5910     2.1440     1.4300 ha         1 HMK       0.119000
     29 HO5         -0.0830    -2.8430     1.1870 ho         1 HMK       0.455000
     30 HO6          6.6320     1.0950    -0.3100 ho         1 HMK       0.468000
     31 H12         -2.3690     2.7100    -0.1910 ha         1 HMK       0.153000
     32 H15         -2.6490    -2.3060     0.2370 ha         1 HMK       0.135000
     33 H161        -6.2070     0.4780     0.7760 h2         1 HMK       0.066700
     34 H162        -6.5060     0.3430    -0.9900 h2         1 HMK       0.066700
@<TRIPOS>BOND
     1     1     2 1   
     2     1     6 1   
     3     1    23 1   
     4     1    24 1   
     5     2     3 1   
     6     3     4 ar  
     7     3     7 ar  
     8     4     5 1   
     9     4    10 ar  
    10     5     6 1   
    11     5    11 1   
    12     5    25 1   
    13     6    12 1   
    14     6    15 1   
    15     7     8 ar  
    16     7    26 1   
    17     8     9 ar  
    18     8    13 1   
    19     9    10 ar  
    20     9    27 1   
    21    10    28 1   
    22    11    14 1   
    23    12    29 1   
    24    13    30 1   
    25    14    15 ar  
    26    14    16 ar  
    27    15    19 ar  
    28    16    17 ar  
    29    16    31 1   
    30    17    18 ar  
    31    17    20 1   
    32    18    19 ar  
    33    18    22 1   
    34    19    32 1   
    35    20    21 1   
    36    21    22 1   
    37    21    33 1   
    38    21    34 1   
@<TRIPOS>SUBSTRUCTURE
     1 HMK         1 TEMP              0 ****  ****    0 ROOT
