@<TRIPOS>MOLECULE
HML
   27    28     1     0     0
SMALL
abcg2


@<TRIPOS>ATOM
      1 C10         19.7800    11.8810     6.0910 ca         1 HML      -0.018300
      2 C11         19.2980    11.1170     5.0310 ca         1 HML      -0.099500
      3 C12         18.3040    11.6000     4.2010 ca         1 HML      -0.065000
      4 C13         17.7690    12.8660     4.4230 ca         1 HML      -0.214300
      5 C14         18.2440    13.6370     5.4730 ca         1 HML      -0.065000
      6 C15         19.2460    13.1460     6.2980 ca         1 HML      -0.099500
      7 C16         16.6510    13.3440     3.5550 c3         1 HML       0.355300
      8 C01         21.7070    13.3310     9.7820 cc         1 HML       0.211900
      9 C02         21.9440    12.9390     8.4960 cd         1 HML      -0.302000
     10 N03         21.0200    11.9710     8.2280 na         1 HML      -0.158500
     11 C04         20.2540    11.8160     9.3470 cd         1 HML       0.371000
     12 N05         20.6640    12.6290    10.2960 nc         1 HML      -0.675000
     13 C06         19.1020    10.8410     9.4890 c          1 HML       0.635500
     14 O07         18.8170    10.1690     8.4800 o          1 HML      -0.697000
     15 O08         18.5610    10.8130    10.6050 o          1 HML      -0.697000
     16 C09         20.8960    11.3290     6.9380 c3         1 HML       0.133900
     17 F17         15.5130    12.6790     3.8150 f          1 HML      -0.123000
     18 F18         16.3880    14.6440     3.7200 f          1 HML      -0.123000
     19 F19         16.9050    13.1580     2.2520 f          1 HML      -0.123000
     20 H1          19.7010    10.1270     4.8550 ha         1 HML       0.126000
     21 H2          17.9460    10.9800     3.3890 ha         1 HML       0.116000
     22 H3          17.8460    14.6240     5.6650 ha         1 HML       0.116000
     23 H4          19.6030    13.7670     7.1100 ha         1 HML       0.126000
     24 H8          20.7680    10.2590     7.0700 h1         1 HML       0.067200
     25 H9          21.8430    11.4770     6.4140 h1         1 HML       0.067200
     26 H5          22.2380    14.0760    10.3550 h4         1 HML       0.008100
     27 H6          22.6730    13.2480     7.7650 h4         1 HML       0.126000
@<TRIPOS>BOND
     1     1     2 ar  
     2     1     6 ar  
     3     1    16 1   
     4     2     3 ar  
     5     2    20 1   
     6     3     4 ar  
     7     3    21 1   
     8     4     5 ar  
     9     4     7 1   
    10     5     6 ar  
    11     5    22 1   
    12     6    23 1   
    13     7    17 1   
    14     7    18 1   
    15     7    19 1   
    16     8     9 2   
    17     8    12 1   
    18     8    26 1   
    19     9    10 1   
    20     9    27 1   
    21    10    11 1   
    22    10    16 1   
    23    11    12 2   
    24    11    13 1   
    25    13    14 1   
    26    13    15 1   
    27    16    24 1   
    28    16    25 1   
@<TRIPOS>SUBSTRUCTURE
     1 HML         1 TEMP              0 ****  ****    0 ROOT
