@<TRIPOS>MOLECULE
HML
   27    28     1     0     0
SMALL
No Charge or Current Charge


@<TRIPOS>ATOM
      1 C10         19.8560    11.9580     6.0280 ca         1 HML      -0.018300
      2 C11         19.1960    11.0740     5.1540 ca         1 HML      -0.099500
      3 C12         18.1370    11.5210     4.3470 ca         1 HML      -0.065000
      4 C13         17.7210    12.8690     4.3910 ca         1 HML      -0.214300
      5 C14         18.3810    13.7550     5.2700 ca         1 HML      -0.065000
      6 C15         19.4400    13.3050     6.0760 ca         1 HML      -0.099500
      7 C16         16.5580    13.3580     3.5190 c3         1 HML       0.355300
      8 C01         21.5960    13.2850     9.9590 cc         1 HML       0.211900
      9 C02         21.9040    13.0490     8.6530 cd         1 HML      -0.302000
     10 N03         21.0580    12.0280     8.2500 na         1 HML      -0.158500
     11 C04         20.2620    11.6730     9.3520 cd         1 HML       0.371000
     12 N05         20.6050    12.4580    10.3890 nc         1 HML      -0.675000
     13 C06         19.1790    10.5810     9.4180 c          1 HML       0.635500
     14 O07         18.9450     9.8880     8.4320 o          1 HML      -0.697000
     15 O08         18.5640    10.4040    10.4680 o          1 HML      -0.697000
     16 C09         21.0140    11.4550     6.8900 c3         1 HML       0.133900
     17 F17         15.3760    13.2300     4.1620 f          1 HML      -0.123000
     18 F18         16.6830    14.6610     3.1770 f          1 HML      -0.123000
     19 F19         16.4560    12.6640     2.3620 f          1 HML      -0.123000
     20 H1          19.5020    10.0310     5.1020 ha         1 HML       0.126000
     21 H2          17.6390    10.8120     3.6880 ha         1 HML       0.116000
     22 H3          18.0760    14.7980     5.3340 ha         1 HML       0.116000
     23 H4          19.9380    14.0090     6.7380 ha         1 HML       0.126000
     24 H8          20.9780    10.3620     6.9670 h1         1 HML       0.067200
     25 H9          21.9540    11.7050     6.3820 h1         1 HML       0.067200
     26 H5          22.0320    14.0120    10.6310 h4         1 HML       0.008100
     27 H6          22.6320    13.5210     8.0030 h4         1 HML       0.126000
@<TRIPOS>BOND
     1     1     2 ar  
     2     1     6 ar  
     3     1    16 1   
     4     2     3 ar  
     5     2    20 1   
     6     3     4 ar  
     7     3    21 1   
     8     4     5 ar  
     9     4     7 1   
    10     5     6 ar  
    11     5    22 1   
    12     6    23 1   
    13     7    17 1   
    14     7    18 1   
    15     7    19 1   
    16     8     9 2   
    17     8    12 1   
    18     8    26 1   
    19     9    10 1   
    20     9    27 1   
    21    10    11 1   
    22    10    16 1   
    23    11    12 2   
    24    11    13 1   
    25    13    14 1   
    26    13    15 1   
    27    16    24 1   
    28    16    25 1   
@<TRIPOS>SUBSTRUCTURE
     1 HML         1 TEMP              0 ****  ****    0 ROOT
