@<TRIPOS>MOLECULE
HMM
   25    26     1     0     0
SMALL
No Charge or Current Charge


@<TRIPOS>ATOM
      1 C31         -1.0090    -0.0530     3.4270 c3         1 HMM       0.109300
      2 N07         -0.4630    -0.1300     2.0600 n          1 HMM      -0.380400
      3 C08          0.8590    -0.4130     1.7750 c          1 HMM       0.601000
      4 O09          1.7500    -0.6130     2.5870 o          1 HMM      -0.536000
      5 N10          0.9990    -0.3590     0.3800 n          1 HMM      -0.270400
      6 N11         -0.2980     0.0350    -0.1430 n          1 HMM      -0.258400
      7 C12         -1.1800     0.1900     0.9280 c          1 HMM       0.588000
      8 O13         -2.3490     0.5410     0.8720 o          1 HMM      -0.535000
      9 C14          2.2400     0.0440    -0.3160 c6         1 HMM       0.146200
     10 C15          1.9800     0.7610    -1.6390 c2         1 HMM      -0.229200
     11 C16          0.7600     0.8920    -2.1950 c2         1 HMM      -0.204200
     12 C17         -0.5140     0.3310    -1.5710 c6         1 HMM       0.150900
     13 C18         -0.9770    -0.9330    -2.3560 c3         1 HMM       0.156600
     14 O19         -1.3190    -0.6440    -3.7250 oh         1 HMM      -0.665000
     15 H311        -2.0800    -0.2920     3.4190 h1         1 HMM       0.056033
     16 H312        -0.4940    -0.7690     4.0800 h1         1 HMM       0.056033
     17 H313        -0.8690     0.9610     3.8230 h1         1 HMM       0.056033
     18 H141         2.8250     0.7010     0.3440 h1         1 HMM       0.070700
     19 H142         2.8460    -0.8540    -0.5000 h1         1 HMM       0.070700
     20 H151         2.8610     1.1790    -2.1300 ha         1 HMM       0.191000
     21 H161         0.6310     1.4140    -3.1460 ha         1 HMM       0.203000
     22 H171        -1.3110     1.0850    -1.6480 h1         1 HMM       0.078700
     23 H181        -0.1720    -1.6790    -2.3110 h1         1 HMM       0.044200
     24 H182        -1.8460    -1.3570    -1.8340 h1         1 HMM       0.044200
     25 HO19        -1.5760    -1.4960    -4.1440 ho         1 HMM       0.454000
@<TRIPOS>BOND
     1     1     2 1   
     2     1    15 1   
     3     1    16 1   
     4     1    17 1   
     5     2     3 1   
     6     2     7 1   
     7     3     4 2   
     8     3     5 1   
     9     5     6 1   
    10     5     9 1   
    11     6     7 1   
    12     6    12 1   
    13     7     8 2   
    14     9    10 1   
    15     9    18 1   
    16     9    19 1   
    17    10    11 2   
    18    10    20 1   
    19    11    12 1   
    20    11    21 1   
    21    12    13 1   
    22    12    22 1   
    23    13    14 1   
    24    13    23 1   
    25    13    24 1   
    26    14    25 1   
@<TRIPOS>SUBSTRUCTURE
     1 HMM         1 TEMP              0 ****  ****    0 ROOT
