@<TRIPOS>MOLECULE
HMM
   25    26     1     0     0
SMALL
abcg2


@<TRIPOS>ATOM
      1 C31         -1.0850    -0.1930     3.2940 c3         1 HMM       0.109300
      2 N07         -0.4310    -0.0990     2.0110 n          1 HMM      -0.380400
      3 C08          0.9040     0.1730     1.8130 c          1 HMM       0.601000
      4 O09          1.7660     0.3010     2.6560 o          1 HMM      -0.536000
      5 N10          1.0560     0.2580     0.4650 n          1 HMM      -0.270400
      6 N11         -0.1190    -0.1650    -0.1570 n          1 HMM      -0.258400
      7 C12         -1.0850    -0.2440     0.8120 c          1 HMM       0.588000
      8 O13         -2.2780    -0.3980     0.6580 o          1 HMM      -0.535000
      9 C14          2.2970     0.0260    -0.2320 c6         1 HMM       0.146200
     10 C15          2.1160     0.4290    -1.6570 c2         1 HMM      -0.229200
     11 C16          0.9200     0.6160    -2.1970 c2         1 HMM      -0.204200
     12 C17         -0.3800     0.3450    -1.5000 c6         1 HMM       0.150900
     13 C18         -1.1710    -0.7070    -2.2850 c3         1 HMM       0.156600
     14 O19         -1.4450    -0.1590    -3.5510 oh         1 HMM      -0.665000
     15 H311        -1.5870    -1.1530     3.3940 h1         1 HMM       0.056033
     16 H312        -0.3340    -0.1080     4.0730 h1         1 HMM       0.056033
     17 H313        -1.8130     0.6070     3.4170 h1         1 HMM       0.056033
     18 H141         3.0630     0.6390     0.2420 h1         1 HMM       0.070700
     19 H142         2.6160    -1.0190    -0.1510 h1         1 HMM       0.070700
     20 H151         3.0140     0.5760    -2.2430 ha         1 HMM       0.191000
     21 H161         0.8350     0.9370    -3.2260 ha         1 HMM       0.203000
     22 H171        -0.9720     1.2680    -1.4450 h1         1 HMM       0.078700
     23 H181        -0.5630    -1.6190    -2.3460 h1         1 HMM       0.044200
     24 H182        -2.0910    -0.9560    -1.7500 h1         1 HMM       0.044200
     25 HO19        -1.9390    -0.8100    -4.0580 ho         1 HMM       0.454000
@<TRIPOS>BOND
     1     1     2 1   
     2     1    15 1   
     3     1    16 1   
     4     1    17 1   
     5     2     3 1   
     6     2     7 1   
     7     3     4 2   
     8     3     5 1   
     9     5     6 1   
    10     5     9 1   
    11     6     7 1   
    12     6    12 1   
    13     7     8 2   
    14     9    10 1   
    15     9    18 1   
    16     9    19 1   
    17    10    11 2   
    18    10    20 1   
    19    11    12 1   
    20    11    21 1   
    21    12    13 1   
    22    12    22 1   
    23    13    14 1   
    24    13    23 1   
    25    13    24 1   
    26    14    25 1   
@<TRIPOS>SUBSTRUCTURE
     1 HMM         1 TEMP              0 ****  ****    0 ROOT
