@<TRIPOS>MOLECULE
HMN
   41    40     1     0     0
SMALL
No Charge or Current Charge


@<TRIPOS>ATOM
      1 C1           0.3020    -0.6370     5.0350 c          1 HMN       0.695000
      2 O1A          0.1690     0.2360     5.8840 o          1 HMN      -0.713500
      3 O1B         -0.0330    -1.8020     5.2030 o          1 HMN      -0.713500
      4 C2           1.0460    -0.2450     3.7030 c3         1 HMN       0.010300
      5 O2           1.6210     1.0890     3.7810 oh         1 HMN      -0.732000
      6 C3           0.1090    -0.3260     2.4660 c3         1 HMN      -0.116400
      7 C4           0.8440    -0.1950     1.1080 c3         1 HMN       0.169300
      8 O4           1.5440     1.0500     1.1230 oh         1 HMN      -0.711000
      9 C5          -0.0980    -0.2860    -0.1360 c3         1 HMN       0.077700
     10 N2          -1.1380     0.7620    -0.0800 ns         1 HMN      -0.496900
     11 C10         -2.4910     0.5390     0.0330 c          1 HMN       0.601100
     12 O10         -2.9790    -0.5810     0.0710 o          1 HMN      -0.606100
     13 C11         -3.3370     1.8030     0.1110 c3         1 HMN      -0.179100
     14 C6           0.6690    -0.2380    -1.4990 c3         1 HMN       0.138300
     15 O6           1.7050    -1.2510    -1.5330 oh         1 HMN      -0.707000
     16 C7          -0.2530    -0.4570    -2.7410 c3         1 HMN       0.103300
     17 O7          -0.5500    -1.8640    -2.7990 oh         1 HMN      -0.707000
     18 C8           0.4030     0.0080    -4.0790 c3         1 HMN       0.136300
     19 O8           0.6680     1.4200    -4.0490 oh         1 HMN      -0.690000
     20 C9          -0.4890    -0.2540    -5.3230 c3         1 HMN       0.123600
     21 O9           0.0740     0.4120    -6.4710 oh         1 HMN      -0.710000
     22 HC2          1.8480    -0.9830     3.5720 h1         1 HMN       0.036700
     23 HO2          1.3680     1.4130     4.6840 ho         1 HMN       0.486000
     24 HC31        -0.6670     0.4440     2.5560 hc         1 HMN       0.057200
     25 HC32        -0.4110    -1.2920     2.4790 hc         1 HMN       0.057200
     26 HC4          1.5660    -1.0200     1.0570 h1         1 HMN       0.036700
     27 HO4          1.6760     1.2120     2.1030 ho         1 HMN       0.492000
     28 HC5         -0.5920    -1.2650    -0.0830 h1         1 HMN       0.088700
     29 HN2         -0.8350     1.7290    -0.0630 hn         1 HMN       0.319500
     30 H111        -4.4080     1.5910     0.1990 hc         1 HMN       0.053700
     31 H112        -2.9780     2.4230     0.9410 hc         1 HMN       0.053700
     32 H113        -3.1200     2.4330    -0.7600 hc         1 HMN       0.053700
     33 HC6          1.1140     0.7650    -1.5820 h1         1 HMN       0.100700
     34 HO6          2.4780    -0.8890    -1.0410 ho         1 HMN       0.494000
     35 HC7         -1.1790     0.1200    -2.6120 h1         1 HMN       0.074700
     36 HO7          0.2520    -2.2690    -2.3810 ho         1 HMN       0.495000
     37 HC8          1.3420    -0.5480    -4.2160 h1         1 HMN       0.091700
     38 HO8          0.6410     1.6660    -5.0070 ho         1 HMN       0.492000
     39 HC91        -0.5530    -1.3360    -5.5020 h1         1 HMN       0.025200
     40 HC92        -1.5050     0.1150    -5.1280 h1         1 HMN       0.025200
     41 HO9         -0.4610     0.1410    -7.2550 ho         1 HMN       0.495000
@<TRIPOS>BOND
     1     1     2 1   
     2     1     3 1   
     3     1     4 1   
     4     4     5 1   
     5     4     6 1   
     6     4    22 1   
     7     5    23 1   
     8     6     7 1   
     9     6    24 1   
    10     6    25 1   
    11     7     8 1   
    12     7     9 1   
    13     7    26 1   
    14     8    27 1   
    15     9    10 1   
    16     9    14 1   
    17     9    28 1   
    18    10    11 1   
    19    10    29 1   
    20    11    12 2   
    21    11    13 1   
    22    13    30 1   
    23    13    31 1   
    24    13    32 1   
    25    14    15 1   
    26    14    16 1   
    27    14    33 1   
    28    15    34 1   
    29    16    17 1   
    30    16    18 1   
    31    16    35 1   
    32    17    36 1   
    33    18    19 1   
    34    18    20 1   
    35    18    37 1   
    36    19    38 1   
    37    20    21 1   
    38    20    39 1   
    39    20    40 1   
    40    21    41 1   
@<TRIPOS>SUBSTRUCTURE
     1 HMN         1 TEMP              0 ****  ****    0 ROOT
