@<TRIPOS>MOLECULE
HMN
   41    40     1     0     0
SMALL
abcg2


@<TRIPOS>ATOM
      1 C1           0.2580    -0.4510     4.9180 c          1 HMN       0.695000
      2 O1A          0.3540     0.5200     5.7040 o          1 HMN      -0.713500
      3 O1B         -0.4030    -1.4870     5.0680 o          1 HMN      -0.713500
      4 C2           1.0610    -0.2930     3.6090 c3         1 HMN       0.010300
      5 O2           1.8190     0.9010     3.6850 oh         1 HMN      -0.732000
      6 C3           0.1290    -0.2880     2.3970 c3         1 HMN      -0.116400
      7 C4           0.8720    -0.0460     1.0860 c3         1 HMN       0.169300
      8 O4           1.4170     1.2560     1.0250 oh         1 HMN      -0.711000
      9 C5          -0.0420    -0.2230    -0.1310 c3         1 HMN       0.077700
     10 N2          -1.1270     0.7290    -0.0780 ns         1 HMN      -0.496900
     11 C10         -2.4320     0.4080    -0.0100 c          1 HMN       0.601100
     12 O10         -2.8470    -0.7430    -0.0300 o          1 HMN      -0.606100
     13 C11         -3.3730     1.5840     0.0810 c3         1 HMN      -0.179100
     14 C6           0.7230    -0.0740    -1.4610 c3         1 HMN       0.138300
     15 O6           1.8630    -0.9060    -1.4920 oh         1 HMN      -0.707000
     16 C7          -0.1750    -0.3350    -2.6770 c3         1 HMN       0.103300
     17 O7          -0.6720    -1.6570    -2.6730 oh         1 HMN      -0.707000
     18 C8           0.5370    -0.0140    -4.0040 c3         1 HMN       0.136300
     19 O8           1.0790     1.2870    -3.9940 oh         1 HMN      -0.690000
     20 C9          -0.3990    -0.2170    -5.1850 c3         1 HMN       0.123600
     21 O9           0.3180     0.0070    -6.3770 oh         1 HMN      -0.710000
     22 HC2          1.7490    -1.1440     3.5110 h1         1 HMN       0.036700
     23 HO2          1.4820     1.3010     4.5140 ho         1 HMN       0.486000
     24 HC31        -0.6470     0.4740     2.5300 hc         1 HMN       0.057200
     25 HC32        -0.3760    -1.2550     2.3520 hc         1 HMN       0.057200
     26 HC4          1.6680    -0.8030     1.0170 h1         1 HMN       0.036700
     27 HO4          1.6940     1.4810     1.9270 ho         1 HMN       0.492000
     28 HC5         -0.4790    -1.2230    -0.0840 h1         1 HMN       0.088700
     29 HN2         -0.8700     1.7000     0.0070 hn         1 HMN       0.319500
     30 H111        -3.9920     1.4870     0.9720 hc         1 HMN       0.053700
     31 H112        -2.8680     2.5480     0.1140 hc         1 HMN       0.053700
     32 H113        -4.0410     1.5760    -0.7800 hc         1 HMN       0.053700
     33 HC6          1.0960     0.9500    -1.5290 h1         1 HMN       0.100700
     34 HO6          1.6060    -1.8000    -1.2430 ho         1 HMN       0.494000
     35 HC7         -1.0520     0.3180    -2.6060 h1         1 HMN       0.074700
     36 HO7          0.0250    -2.2570    -2.9590 ho         1 HMN       0.495000
     37 HC8          1.3930    -0.6900    -4.1140 h1         1 HMN       0.091700
     38 HO8          0.3550     1.9220    -3.9700 ho         1 HMN       0.492000
     39 HC91        -0.8160    -1.2290    -5.1510 h1         1 HMN       0.025200
     40 HC92        -1.2480     0.4780    -5.0880 h1         1 HMN       0.025200
     41 HO9         -0.2760    -0.1580    -7.1140 ho         1 HMN       0.495000
@<TRIPOS>BOND
     1     1     2 1   
     2     1     3 1   
     3     1     4 1   
     4     4     5 1   
     5     4     6 1   
     6     4    22 1   
     7     5    23 1   
     8     6     7 1   
     9     6    24 1   
    10     6    25 1   
    11     7     8 1   
    12     7     9 1   
    13     7    26 1   
    14     8    27 1   
    15     9    10 1   
    16     9    14 1   
    17     9    28 1   
    18    10    11 1   
    19    10    29 1   
    20    11    12 2   
    21    11    13 1   
    22    13    30 1   
    23    13    31 1   
    24    13    32 1   
    25    14    15 1   
    26    14    16 1   
    27    14    33 1   
    28    15    34 1   
    29    16    17 1   
    30    16    18 1   
    31    16    35 1   
    32    17    36 1   
    33    18    19 1   
    34    18    20 1   
    35    18    37 1   
    36    19    38 1   
    37    20    21 1   
    38    20    39 1   
    39    20    40 1   
    40    21    41 1   
@<TRIPOS>SUBSTRUCTURE
     1 HMN         1 TEMP              0 ****  ****    0 ROOT
