@<TRIPOS>MOLECULE
HMO
   32    34     1     0     0
SMALL
bcc


@<TRIPOS>ATOM
      1 C1          -0.0990    -0.0470     4.1340 ca         1 HMO       0.199100
      2 C2           1.2440     0.0870     3.7420 ca         1 HMO      -0.253000
      3 C3           1.5640     0.0990     2.4040 ca         1 HMO      -0.003000
      4 C4           0.5840    -0.0220     1.4140 ca         1 HMO      -0.268600
      5 C5          -0.7400    -0.1520     1.8340 ca         1 HMO       0.182100
      6 C6          -1.0950    -0.1670     3.1720 ca         1 HMO      -0.209000
      7 C7           0.9170    -0.0030    -0.0090 c          1 HMO       0.603900
      8 C8          -0.2340    -0.1350    -0.9020 cc         1 HMO      -0.216400
      9 C9          -1.4650    -0.2620    -0.3690 cd         1 HMO       0.086100
     10 O10         -1.7430    -0.2700     0.9370 os         1 HMO      -0.205200
     11 C11         -0.0690    -0.0850    -2.3650 ca         1 HMO      -0.070800
     12 C12         -0.8500     0.7710    -3.1380 ca         1 HMO      -0.069000
     13 C13         -0.7290     0.8130    -4.5180 ca         1 HMO      -0.197000
     14 C14          0.1960    -0.0060    -5.1590 ca         1 HMO       0.144100
     15 C15          0.9880    -0.8670    -4.3990 ca         1 HMO      -0.197000
     16 C16          0.8550    -0.9000    -3.0230 ca         1 HMO      -0.069000
     17 O17          0.3680    -0.0070    -6.4940 oh         1 HMO      -0.493100
     18 O18          2.0640     0.1240    -0.4150 o          1 HMO      -0.538100
     19 O19         -0.5060    -0.0690     5.4060 os         1 HMO      -0.312900
     20 C20          0.4580     0.0200     6.4430 c3         1 HMO       0.125700
     21 H2           2.0360     0.1810     4.4710 ha         1 HMO       0.143000
     22 H3           2.5990     0.2030     2.1070 ha         1 HMO       0.156000
     23 H6          -2.1320    -0.2710     3.4630 ha         1 HMO       0.166000
     24 H9          -2.3610    -0.3750    -0.9650 h4         1 HMO       0.181000
     25 H12         -1.5630     1.4290    -2.6560 ha         1 HMO       0.135500
     26 H13         -1.3490     1.4930    -5.0920 ha         1 HMO       0.139000
     27 H15          1.7070    -1.5100    -4.8930 ha         1 HMO       0.139000
     28 H16          1.4700    -1.5880    -2.4580 ha         1 HMO       0.135500
     29 H17         -0.2070     0.6450    -6.9090 ho         1 HMO       0.425000
     30 H201        -0.0960    -0.0340     7.3770 h1         1 HMO       0.046700
     31 H202         1.1710    -0.8050     6.4060 h1         1 HMO       0.046700
     32 H203         1.0010     0.9670     6.4120 h1         1 HMO       0.046700
@<TRIPOS>BOND
     1     1     2 ar  
     2     1     6 ar  
     3     1    19 1   
     4     2     3 ar  
     5     2    21 1   
     6     3     4 ar  
     7     3    22 1   
     8     4     5 ar  
     9     4     7 1   
    10     5     6 ar  
    11     5    10 1   
    12     6    23 1   
    13     7     8 1   
    14     7    18 2   
    15     8     9 2   
    16     8    11 1   
    17     9    10 1   
    18     9    24 1   
    19    11    12 ar  
    20    11    16 ar  
    21    12    13 ar  
    22    12    25 1   
    23    13    14 ar  
    24    13    26 1   
    25    14    15 ar  
    26    14    17 1   
    27    15    16 ar  
    28    15    27 1   
    29    16    28 1   
    30    17    29 1   
    31    19    20 1   
    32    20    30 1   
    33    20    31 1   
    34    20    32 1   
@<TRIPOS>SUBSTRUCTURE
     1 HMO         1 TEMP              0 ****  ****    0 ROOT
