@<TRIPOS>MOLECULE
HMO
   32    34     1     0     0
SMALL
No Charge or Current Charge


@<TRIPOS>ATOM
      1 C1          -0.0930    -0.0750     4.1640 ca         1 HMO       0.199100
      2 C2           1.2540     0.0950     3.7840 ca         1 HMO      -0.235000
      3 C3           1.6020     0.1450     2.4230 ca         1 HMO       0.015000
      4 C4           0.6040     0.0250     1.4350 ca         1 HMO      -0.268600
      5 C5          -0.7330    -0.1430     1.8190 ca         1 HMO       0.182100
      6 C6          -1.0790    -0.1930     3.1760 ca         1 HMO      -0.191000
      7 C7           0.9420     0.0760    -0.0200 c          1 HMO       0.603900
      8 C8          -0.2080    -0.0700    -0.9410 cc         1 HMO      -0.216400
      9 C9          -1.4990    -0.2360    -0.4740 cd         1 HMO       0.036100
     10 O10         -1.7270    -0.2620     0.8780 os         1 HMO      -0.205200
     11 C11         -0.0720    -0.0610    -2.4000 ca         1 HMO      -0.070800
     12 C12         -0.8470     0.8160    -3.1870 ca         1 HMO      -0.051000
     13 C13         -0.7150     0.8190    -4.5870 ca         1 HMO      -0.179000
     14 C14          0.1910    -0.0540    -5.2090 ca         1 HMO       0.144100
     15 C15          0.9660    -0.9270    -4.4330 ca         1 HMO      -0.179000
     16 C16          0.8370    -0.9320    -3.0330 ca         1 HMO      -0.051000
     17 O17          0.3250    -0.0570    -6.5640 oh         1 HMO      -0.532100
     18 O18          2.0950     0.2330    -0.4040 o          1 HMO      -0.538100
     19 O19         -0.4930    -0.1310     5.4830 os         1 HMO      -0.336100
     20 C20          0.4410    -0.0200     6.5730 c3         1 HMO       0.148900
     21 H2           2.0430     0.1900     4.5240 ha         1 HMO       0.125000
     22 H3           2.6460     0.2770     2.1420 ha         1 HMO       0.138000
     23 H6          -2.1180    -0.3240     3.4640 ha         1 HMO       0.148000
     24 H9          -2.3960    -0.3620    -1.0750 h4         1 HMO       0.231000
     25 H12         -1.5460     1.5020    -2.7140 ha         1 HMO       0.117500
     26 H13         -1.3180     1.5030    -5.1800 ha         1 HMO       0.121000
     27 H15          1.6680    -1.6040    -4.9150 ha         1 HMO       0.121000
     28 H16          1.4400    -1.6170    -2.4410 ha         1 HMO       0.117500
     29 H17         -0.2880     0.6120    -6.9380 ho         1 HMO       0.464000
     30 H201        -0.0860    -0.0900     7.5330 h1         1 HMO       0.046700
     31 H202         1.1840    -0.8260     6.5330 h1         1 HMO       0.046700
     32 H203         0.9640     0.9450     6.5420 h1         1 HMO       0.046700
@<TRIPOS>BOND
     1     1     2 ar  
     2     1     6 ar  
     3     1    19 1   
     4     2     3 ar  
     5     2    21 1   
     6     3     4 ar  
     7     3    22 1   
     8     4     5 ar  
     9     4     7 1   
    10     5     6 ar  
    11     5    10 1   
    12     6    23 1   
    13     7     8 1   
    14     7    18 2   
    15     8     9 2   
    16     8    11 1   
    17     9    10 1   
    18     9    24 1   
    19    11    12 ar  
    20    11    16 ar  
    21    12    13 ar  
    22    12    25 1   
    23    13    14 ar  
    24    13    26 1   
    25    14    15 ar  
    26    14    17 1   
    27    15    16 ar  
    28    15    27 1   
    29    16    28 1   
    30    17    29 1   
    31    19    20 1   
    32    20    30 1   
    33    20    31 1   
    34    20    32 1   
@<TRIPOS>SUBSTRUCTURE
     1 HMO         1 TEMP              0 ****  ****    0 ROOT
