@<TRIPOS>MOLECULE
HMQ
   21    21     1     0     0
SMALL
abcg2


@<TRIPOS>ATOM
      1 O5          -2.3860     2.8850     0.0180 o          1 HMQ      -0.564100
      2 C5          -1.8040     1.8170     0.1110 c          1 HMQ       0.576500
      3 C6          -0.4970     1.5880    -0.5030 ce         1 HMQ      -0.336200
      4 C4          -2.3950     0.6910     0.8570 ce         1 HMQ      -0.261200
      5 C3          -1.8270    -0.5090     0.8590 c2         1 HMQ      -0.215200
      6 C2          -0.5650    -0.8170     0.0980 c6         1 HMQ       0.423400
      7 O6          -0.8780    -1.6030    -1.0420 os         1 HMQ      -0.241000
      8 O7          -1.4410    -2.8240    -0.6180 oh         1 HMQ      -0.472000
      9 O2           0.3650    -1.4340     0.9110 oh         1 HMQ      -0.602000
     10 C1           0.1090     0.3960    -0.5120 c2         1 HMQ       0.053600
     11 C7           1.4580     0.1790    -1.1020 c3         1 HMQ      -0.204200
     12 C8           2.6180     0.2030    -0.0570 c          1 HMQ       0.743000
     13 OD1          2.5630     1.0600     0.8310 o          1 HMQ      -0.714000
     14 OD2          3.5310    -0.6170    -0.2590 o          1 HMQ      -0.714000
     15 H6          -0.0260     2.4420    -0.9750 ha         1 HMQ       0.205000
     16 H4          -3.3150     0.8720     1.4000 ha         1 HMQ       0.181000
     17 H3          -2.2860    -1.3250     1.4080 ha         1 HMQ       0.173000
     18 H2          -0.0620    -2.0730     1.4940 ho         1 HMQ       0.436000
     19 H71C         1.4880    -0.7580    -1.6590 hc         1 HMQ       0.042700
     20 H72C         1.6580     0.9750    -1.8250 hc         1 HMQ       0.042700
     21 H7L         -0.6900    -3.4310    -0.6890 ho         1 HMQ       0.446000
@<TRIPOS>BOND
     1     1     2 2   
     2     2     3 1   
     3     2     4 1   
     4     3    10 2   
     5     3    15 1   
     6     4     5 2   
     7     4    16 1   
     8     5     6 1   
     9     5    17 1   
    10     6     7 1   
    11     6     9 1   
    12     6    10 1   
    13     7     8 1   
    14     8    21 1   
    15     9    18 1   
    16    10    11 1   
    17    11    12 1   
    18    11    19 1   
    19    11    20 1   
    20    12    13 1   
    21    12    14 1   
@<TRIPOS>SUBSTRUCTURE
     1 HMQ         1 TEMP              0 ****  ****    0 ROOT
