@<TRIPOS>MOLECULE
HMQ
   21    21     1     0     0
SMALL
No Charge or Current Charge


@<TRIPOS>ATOM
      1 O5          -2.0720     3.0660     0.4620 o          1 HMQ      -0.564100
      2 C5          -1.6550     1.9220     0.3550 c          1 HMQ       0.576500
      3 C6          -0.3550     1.6150    -0.2850 ce         1 HMQ      -0.336200
      4 C4          -2.4140     0.7470     0.8510 ce         1 HMQ      -0.261200
      5 C3          -1.9600    -0.5240     0.7360 c2         1 HMQ      -0.215200
      6 C2          -0.6250    -0.8860     0.0950 c6         1 HMQ       0.423400
      7 O6          -0.8680    -1.7970    -1.0080 os         1 HMQ      -0.241000
      8 O7          -1.3310    -3.1350    -0.5280 oh         1 HMQ      -0.472000
      9 O2           0.1410    -1.5820     1.0640 oh         1 HMQ      -0.602000
     10 C1           0.1460     0.3610    -0.4170 c2         1 HMQ       0.053600
     11 C7           1.4880     0.1080    -1.1040 c3         1 HMQ      -0.204200
     12 C8           2.6480     0.6110    -0.2360 c          1 HMQ       0.743000
     13 OD1          2.9600     1.7890    -0.3250 o          1 HMQ      -0.714000
     14 OD2          3.1480    -0.1600     0.5700 o          1 HMQ      -0.714000
     15 H6           0.1940     2.4770    -0.6550 ha         1 HMQ       0.205000
     16 H4          -3.3740     0.9660     1.3160 ha         1 HMQ       0.181000
     17 H3          -2.5530    -1.3590     1.1090 ha         1 HMQ       0.173000
     18 H2          -0.2600    -2.4750     1.0490 ho         1 HMQ       0.436000
     19 H71C         1.5960    -0.9700    -1.2670 hc         1 HMQ       0.042700
     20 H72C         1.4610     0.6770    -2.0410 hc         1 HMQ       0.042700
     21 H7L         -0.6980    -3.7320    -0.9930 ho         1 HMQ       0.446000
@<TRIPOS>BOND
     1     1     2 2   
     2     2     3 1   
     3     2     4 1   
     4     3    10 2   
     5     3    15 1   
     6     4     5 2   
     7     4    16 1   
     8     5     6 1   
     9     5    17 1   
    10     6     7 1   
    11     6     9 1   
    12     6    10 1   
    13     7     8 1   
    14     8    21 1   
    15     9    18 1   
    16    10    11 1   
    17    11    12 1   
    18    11    19 1   
    19    11    20 1   
    20    12    13 1   
    21    12    14 1   
@<TRIPOS>SUBSTRUCTURE
     1 HMQ         1 TEMP              0 ****  ****    0 ROOT
