@<TRIPOS>MOLECULE
HMR
   28    27     1     0     0
SMALL
No Charge or Current Charge


@<TRIPOS>ATOM
      1 N            1.1060    -1.1270     1.8740 n8         1 HMR      -0.848800
      2 CA           0.1410    -0.0210     1.7710 c3         1 HMR       0.173500
      3 CB          -0.6340    -0.1270     0.4310 c3         1 HMR      -0.119400
      4 CG           0.2500    -0.0130    -0.8380 c3         1 HMR      -0.092400
      5 CD          -0.5730    -0.0420    -2.1440 c3         1 HMR       0.218800
      6 NE           0.3110     0.0800    -3.3100 nu         1 HMR      -0.845200
      7 CZ          -0.1110     0.0760    -4.5770 c2         1 HMR       0.794100
      8 NH1         -1.3100    -0.0000    -4.9240 n2         1 HMR      -0.898100
      9 NH2          0.9460     0.1560    -5.3640 nv         1 HMR      -0.963800
     10 O           -0.0080     1.7400     4.3910 o          1 HMR      -0.847300
     11 CH2         -0.8070    -0.0080     2.9920 c3         1 HMR      -0.193400
     12 OXT          0.3980    -0.2700     5.0390 o          1 HMR      -0.847300
     13 H            1.6440    -1.1730     1.0050 hn         1 HMR       0.310800
     14 H2           0.5910    -2.0100     1.9040 hn         1 HMR       0.310800
     15 HA           0.7020     0.9260     1.7560 h1         1 HMR       0.072700
     16 HB2         -1.1890    -1.0730     0.4030 hc         1 HMR       0.035700
     17 HB3         -1.3830     0.6740     0.3950 hc         1 HMR       0.035700
     18 HG2          0.8210     0.9230    -0.7950 hc         1 HMR       0.037200
     19 HG3          0.9750    -0.8360    -0.8600 hc         1 HMR       0.037200
     20 HD2         -1.1360    -0.9850    -2.1950 h1         1 HMR       0.048700
     21 HD3         -1.2970     0.7840    -2.1330 h1         1 HMR       0.048700
     22 HE           1.2610    -0.2460    -3.1980 hn         1 HMR       0.405800
     23 HH1         -1.3360    -0.0020    -5.9480 hn         1 HMR       0.367400
     24 HH21         0.7220     0.3890    -6.3210 hn         1 HMR       0.391300
     25 HH22         1.6950     0.7000    -4.9620 hn         1 HMR       0.391300
     26 HC1         -1.6070     0.6940     2.7260 hc         1 HMR       0.015200
     27 HC2         -1.1650    -1.0340     3.1470 hc         1 HMR       0.015200
     28 C           -0.0740     0.5260     4.2350 c          1 HMR       0.941600
@<TRIPOS>BOND
     1     1     2 1   
     2     1    13 1   
     3     1    14 1   
     4     2     3 1   
     5     2    11 1   
     6     2    15 1   
     7     3     4 1   
     8     3    16 1   
     9     3    17 1   
    10     4     5 1   
    11     4    18 1   
    12     4    19 1   
    13     5     6 1   
    14     5    20 1   
    15     5    21 1   
    16     6     7 1   
    17     6    22 1   
    18     7     8 2   
    19     7     9 1   
    20     8    23 1   
    21     9    24 1   
    22     9    25 1   
    23    10    28 1   
    24    11    26 1   
    25    11    27 1   
    26    11    28 1   
    27    12    28 1   
@<TRIPOS>SUBSTRUCTURE
     1 HMR         1 TEMP              0 ****  ****    0 ROOT
