@<TRIPOS>MOLECULE
HMR
   28    27     1     0     0
SMALL
bcc


@<TRIPOS>ATOM
      1 N            1.1190    -1.0610     1.9290 n8         1 HMR      -0.848800
      2 CA           0.1570     0.0190     1.7360 c3         1 HMR       0.173500
      3 CB          -0.5950    -0.0380     0.4010 c3         1 HMR      -0.119400
      4 CG           0.3090     0.0220    -0.8230 c3         1 HMR      -0.092400
      5 CD          -0.4850     0.0180    -2.1200 c3         1 HMR       0.218800
      6 NE           0.4040     0.0920    -3.2580 nu         1 HMR      -0.845200
      7 CZ          -0.0730    -0.0590    -4.5310 c2         1 HMR       0.794100
      8 NH1         -1.2730    -0.4660    -4.7330 n2         1 HMR      -0.898100
      9 NH2          0.8690     0.1670    -5.5120 nv         1 HMR      -0.963800
     10 O            0.6370     1.2220     4.3460 o          1 HMR      -0.847300
     11 CH2         -0.8200     0.0250     2.9050 c3         1 HMR      -0.193400
     12 OXT         -0.4560    -0.5190     5.1990 o          1 HMR      -0.847300
     13 H            1.8210    -1.0380     1.2000 hn         1 HMR       0.310800
     14 H2           0.6460    -1.9530     1.8270 hn         1 HMR       0.310800
     15 HA           0.7210     0.9570     1.7670 h1         1 HMR       0.072700
     16 HB2         -1.1980    -0.9540     0.3670 hc         1 HMR       0.035700
     17 HB3         -1.3050     0.7960     0.3590 hc         1 HMR       0.035700
     18 HG2          0.9280     0.9250    -0.7720 hc         1 HMR       0.037200
     19 HG3          0.9970    -0.8290    -0.8330 hc         1 HMR       0.037200
     20 HD2         -1.0680    -0.9020    -2.1910 h1         1 HMR       0.048700
     21 HD3         -1.2080     0.8440    -2.1170 h1         1 HMR       0.048700
     22 HE           1.1860     0.7180    -3.1450 hn         1 HMR       0.405800
     23 HH1         -1.4420    -0.5910    -5.7250 hn         1 HMR       0.367400
     24 HH21         0.4970     0.3820    -6.4230 hn         1 HMR       0.391300
     25 HH22         1.6510     0.7570    -5.2760 hn         1 HMR       0.391300
     26 HC1         -1.5520     0.8250     2.7450 hc         1 HMR       0.015200
     27 HC2         -1.3860    -0.9130     2.9080 hc         1 HMR       0.015200
     28 C           -0.1470     0.2530     4.2670 c          1 HMR       0.941600
@<TRIPOS>BOND
     1     1     2 1   
     2     1    13 1   
     3     1    14 1   
     4     2     3 1   
     5     2    11 1   
     6     2    15 1   
     7     3     4 1   
     8     3    16 1   
     9     3    17 1   
    10     4     5 1   
    11     4    18 1   
    12     4    19 1   
    13     5     6 1   
    14     5    20 1   
    15     5    21 1   
    16     6     7 1   
    17     6    22 1   
    18     7     8 2   
    19     7     9 1   
    20     8    23 1   
    21     9    24 1   
    22     9    25 1   
    23    10    28 1   
    24    11    26 1   
    25    11    27 1   
    26    11    28 1   
    27    12    28 1   
@<TRIPOS>SUBSTRUCTURE
     1 HMR         1 TEMP              0 ****  ****    0 ROOT
