@<TRIPOS>MOLECULE
HMT
   78    82     1     0     0
SMALL
No Charge or Current Charge


@<TRIPOS>ATOM
      1 C18         62.4420   122.6970    96.1810 c3         1 HMT       0.141900
      2 O3          63.6190   121.9140    96.4360 os         1 HMT      -0.326100
      3 C2          63.6940   121.1560    97.5780 c2         1 HMT       0.066900
      4 C1          62.7820   121.0270    98.5410 c2         1 HMT      -0.347200
      5 C9          63.2630   120.0640    99.6000 c5         1 HMT       0.255400
      6 C12         62.3340   118.7940    99.6420 c5         1 HMT      -0.071400
      7 C11         61.7510   118.8320   101.0830 c5         1 HMT      -0.079400
      8 C10         61.7610   120.3460   101.3870 c5         1 HMT       0.179800
      9 N1          63.1280   120.6890   100.9440 n3         1 HMT      -0.741600
     10 C8          63.5070   122.1100   101.1160 c3         1 HMT       0.198800
     11 C7          64.8920   122.4830   100.5670 c3         1 HMT      -0.034100
     12 C6          65.9380   121.4050   100.8170 ca         1 HMT      -0.037300
     13 C16         67.0260   121.7250   101.6650 ca         1 HMT      -0.108000
     14 C15         68.0080   120.7610   101.8930 ca         1 HMT       0.055100
     15 O2          69.1180   120.9190   102.6580 os         1 HMT      -0.347100
     16 C17         69.7470   119.5900   102.5900 c5         1 HMT       0.372600
     17 O1          69.0030   118.7480   101.6390 os         1 HMT      -0.354100
     18 C14         67.9420   119.5300   101.3160 ca         1 HMT       0.042100
     19 C13         66.8900   119.1730   100.4700 ca         1 HMT      -0.086000
     20 C5          65.8560   120.1090   100.2050 ca         1 HMT      -0.037300
     21 C4          64.7560   119.6560    99.1990 c5         1 HMT      -0.000400
     22 C3          64.9620   120.3310    97.7790 c5         1 HMT       0.219500
     23 O4          66.1190   121.2080    97.8410 os         1 HMT      -0.432100
     24 C19         66.7340   121.5000    96.6510 c          1 HMT       0.583100
     25 O5          66.4050   121.0600    95.5550 o          1 HMT      -0.474000
     26 C20         68.0050   122.4010    96.8750 c3         1 HMT       0.146000
     27 C21         69.0070   121.6930    97.8320 c3         1 HMT      -0.145400
     28 C22         69.4880   120.3510    97.2840 c          1 HMT       0.600100
     29 O8          68.8200   119.3270    97.3250 o          1 HMT      -0.491000
     30 O7          70.8000   120.3980    96.8880 os         1 HMT      -0.446100
     31 C23         71.4020   119.1860    96.3970 c3         1 HMT       0.151900
     32 O6          68.6960   122.6570    95.6290 oh         1 HMT      -0.656000
     33 C24         67.5930   123.7740    97.4870 c3         1 HMT      -0.081400
     34 C25         66.5540   124.5860    96.6710 c3         1 HMT      -0.076400
     35 C26         66.1860   125.9280    97.3570 c3         1 HMT      -0.098400
     36 C27         65.1700   126.8340    96.5990 c3         1 HMT       0.179000
     37 C28         63.7960   126.1470    96.4190 c3         1 HMT      -0.098600
     38 C29         65.7220   127.3150    95.2350 c3         1 HMT      -0.098600
     39 O9          64.9620   127.9980    97.4000 oh         1 HMT      -0.668000
     40 H18         62.2840   123.4330    96.9790 h1         1 HMT       0.044367
     41 H18A        62.5430   123.2370    95.2320 h1         1 HMT       0.044367
     42 H18B        61.5540   122.0550    96.1160 h1         1 HMT       0.044367
     43 H1          61.8180   121.5300    98.5580 ha         1 HMT       0.196000
     44 H12         61.5320   118.8650    98.8980 hc         1 HMT       0.049200
     45 H12A        62.8440   117.8440    99.4520 hc         1 HMT       0.049200
     46 H11         60.7470   118.3980   101.1450 hc         1 HMT       0.052700
     47 H11A        62.3900   118.2860   101.7870 hc         1 HMT       0.052700
     48 H10         60.9940   120.8830   100.8110 h1         1 HMT       0.034700
     49 H10A        61.6040   120.5530   102.4550 h1         1 HMT       0.034700
     50 H8          62.7610   122.7670   100.6490 h1         1 HMT       0.030200
     51 H8A         63.5010   122.3410   102.1900 h1         1 HMT       0.030200
     52 H7          64.8120   122.6980    99.4980 hc         1 HMT       0.054200
     53 H7A         65.1920   123.4350   101.0200 hc         1 HMT       0.054200
     54 H16         67.1090   122.7030   102.1320 ha         1 HMT       0.130000
     55 H17         70.7880   119.6900   102.2610 h2         1 HMT       0.065200
     56 H17A        69.7100   119.1270   103.5830 h2         1 HMT       0.065200
     57 H13         66.8850   118.1870   100.0120 ha         1 HMT       0.134000
     58 H4          64.8280   118.5730    99.0590 hc         1 HMT       0.066700
     59 H3          65.0910   119.5630    97.0040 h1         1 HMT       0.096700
     60 H21         69.8730   122.3520    97.9650 hc         1 HMT       0.092700
     61 H21A        68.5260   121.5190    98.8010 hc         1 HMT       0.092700
     62 H23         70.8670   118.8130    95.5140 h1         1 HMT       0.051367
     63 H23A        72.4460   119.3660    96.1100 h1         1 HMT       0.051367
     64 H23B        71.3920   118.4030    97.1670 h1         1 HMT       0.051367
     65 HO6         68.0740   122.4280    94.9010 ho         1 HMT       0.479000
     66 H24         67.1890   123.6080    98.4930 hc         1 HMT       0.056700
     67 H24A        68.4920   124.3890    97.6180 hc         1 HMT       0.056700
     68 H25         66.9590   124.7820    95.6710 hc         1 HMT       0.053200
     69 H25A        65.6450   123.9860    96.5410 hc         1 HMT       0.053200
     70 H26         65.7850   125.7040    98.3550 hc         1 HMT       0.043200
     71 H26A        67.1100   126.4980    97.5210 hc         1 HMT       0.043200
     72 H28         63.4180   125.7650    97.3750 hc         1 HMT       0.042867
     73 H28A        63.0580   126.8510    96.0160 hc         1 HMT       0.042867
     74 H28B        63.8680   125.3070    95.7190 hc         1 HMT       0.042867
     75 H29         65.0470   128.0490    94.7800 hc         1 HMT       0.042867
     76 H29A        66.7050   127.7860    95.3550 hc         1 HMT       0.042867
     77 H29B        65.8270   126.4800    94.5330 hc         1 HMT       0.042867
     78 HO9         64.6120   127.6910    98.2630 ho         1 HMT       0.434000
@<TRIPOS>BOND
     1     1     2 1   
     2     1    40 1   
     3     1    41 1   
     4     1    42 1   
     5     2     3 1   
     6     3     4 2   
     7     3    22 1   
     8     4     5 1   
     9     4    43 1   
    10     5     6 1   
    11     5     9 1   
    12     5    21 1   
    13     6     7 1   
    14     6    44 1   
    15     6    45 1   
    16     7     8 1   
    17     7    46 1   
    18     7    47 1   
    19     8     9 1   
    20     8    48 1   
    21     8    49 1   
    22     9    10 1   
    23    10    11 1   
    24    10    50 1   
    25    10    51 1   
    26    11    12 1   
    27    11    52 1   
    28    11    53 1   
    29    12    13 ar  
    30    12    20 ar  
    31    13    14 ar  
    32    13    54 1   
    33    14    15 1   
    34    14    18 ar  
    35    15    16 1   
    36    16    17 1   
    37    16    55 1   
    38    16    56 1   
    39    17    18 1   
    40    18    19 ar  
    41    19    20 ar  
    42    19    57 1   
    43    20    21 1   
    44    21    22 1   
    45    21    58 1   
    46    22    23 1   
    47    22    59 1   
    48    23    24 1   
    49    24    25 2   
    50    24    26 1   
    51    26    27 1   
    52    26    32 1   
    53    26    33 1   
    54    27    28 1   
    55    27    60 1   
    56    27    61 1   
    57    28    29 2   
    58    28    30 1   
    59    30    31 1   
    60    31    62 1   
    61    31    63 1   
    62    31    64 1   
    63    32    65 1   
    64    33    34 1   
    65    33    66 1   
    66    33    67 1   
    67    34    35 1   
    68    34    68 1   
    69    34    69 1   
    70    35    36 1   
    71    35    70 1   
    72    35    71 1   
    73    36    37 1   
    74    36    38 1   
    75    36    39 1   
    76    37    72 1   
    77    37    73 1   
    78    37    74 1   
    79    38    75 1   
    80    38    76 1   
    81    38    77 1   
    82    39    78 1   
@<TRIPOS>SUBSTRUCTURE
     1 HMT         1 TEMP              0 ****  ****    0 ROOT
