@<TRIPOS>MOLECULE
HMT
   78    82     1     0     0
SMALL
abcg2


@<TRIPOS>ATOM
      1 C18         62.1250   122.9930    96.6350 c3         1 HMT       0.141900
      2 O3          63.3540   122.2630    96.6420 os         1 HMT      -0.326100
      3 C2          63.5380   121.4280    97.6850 c2         1 HMT       0.066900
      4 C1          62.7450   121.1350    98.7150 c2         1 HMT      -0.347200
      5 C9          63.3400   120.0900    99.6310 c5         1 HMT       0.255400
      6 C12         62.4330   118.8140    99.6630 c5         1 HMT      -0.071400
      7 C11         62.0170   118.6190   101.1280 c5         1 HMT      -0.079400
      8 C10         62.2020   120.0110   101.7140 c5         1 HMT       0.179800
      9 N1          63.4100   120.4730   101.0510 n3         1 HMT      -0.741600
     10 C8          63.7990   121.8320   101.3730 c3         1 HMT       0.198800
     11 C7          65.1240   122.2410   100.7170 c3         1 HMT      -0.034100
     12 C6          66.1480   121.1380   100.7010 ca         1 HMT      -0.037300
     13 C16         67.3090   121.2790   101.4780 ca         1 HMT      -0.108000
     14 C15         68.2440   120.2700   101.4420 ca         1 HMT       0.055100
     15 O2          69.4730   120.2120   102.0560 os         1 HMT      -0.347100
     16 C17         69.9480   118.8730   101.8350 c5         1 HMT       0.372600
     17 O1          69.1410   118.3060   100.7910 os         1 HMT      -0.354100
     18 C14         68.0490   119.1350   100.6790 ca         1 HMT       0.042100
     19 C13         66.9210   118.9720    99.9090 ca         1 HMT      -0.086000
     20 C5          65.9550   119.9920    99.9140 ca         1 HMT      -0.037300
     21 C4          64.7620   119.8140    99.0000 c5         1 HMT      -0.000400
     22 C3          64.8250   120.6640    97.6990 c5         1 HMT       0.219500
     23 O4          65.9600   121.5690    97.7350 os         1 HMT      -0.432100
     24 C19         66.6770   121.7910    96.6450 c          1 HMT       0.583100
     25 O5          66.4160   121.4030    95.5280 o          1 HMT      -0.474000
     26 C20         67.8860   122.6770    96.9630 c3         1 HMT       0.146000
     27 C21         68.7560   122.0670    98.0690 c3         1 HMT      -0.145400
     28 C22         69.2960   120.6980    97.7480 c          1 HMT       0.600100
     29 O8          68.7800   119.9010    96.9970 o          1 HMT      -0.491000
     30 O7          70.4220   120.4510    98.4260 os         1 HMT      -0.446100
     31 C23         71.0320   119.1580    98.2230 c3         1 HMT       0.151900
     32 O6          68.6610   122.8130    95.7800 oh         1 HMT      -0.656000
     33 C24         67.3950   124.0610    97.4300 c3         1 HMT      -0.081400
     34 C25         66.4150   124.7380    96.4770 c3         1 HMT      -0.076400
     35 C26         66.0830   126.1550    96.9390 c3         1 HMT      -0.098400
     36 C27         65.1320   126.9560    96.0360 c3         1 HMT       0.179000
     37 C28         63.7740   126.2720    95.8950 c3         1 HMT      -0.098600
     38 C29         65.7470   127.2370    94.6710 c3         1 HMT      -0.098600
     39 O9          64.9420   128.2610    96.6360 oh         1 HMT      -0.668000
     40 H18         62.0560   123.6310    97.5200 h1         1 HMT       0.044367
     41 H18A        62.1350   123.6040    95.7380 h1         1 HMT       0.044367
     42 H18B        61.2750   122.3070    96.6130 h1         1 HMT       0.044367
     43 H1          61.7560   121.5360    98.8830 ha         1 HMT       0.196000
     44 H12         61.5570   118.9840    99.0370 hc         1 HMT       0.049200
     45 H12A        62.9550   117.9480    99.2600 hc         1 HMT       0.049200
     46 H11         60.9970   118.2480   101.2280 hc         1 HMT       0.052700
     47 H11A        62.6860   117.9180   101.6300 hc         1 HMT       0.052700
     48 H10         61.3290   120.6490   101.4880 h1         1 HMT       0.034700
     49 H10A        62.3410   120.0170   102.7980 h1         1 HMT       0.034700
     50 H8          63.0250   122.5640   101.0880 h1         1 HMT       0.030200
     51 H8A         63.9000   121.8830   102.4600 h1         1 HMT       0.030200
     52 H7          64.9340   122.5730    99.6970 hc         1 HMT       0.054200
     53 H7A         65.5200   123.1030   101.2540 hc         1 HMT       0.054200
     54 H16         67.4680   122.1680   102.0750 ha         1 HMT       0.130000
     55 H17         70.9870   118.9060   101.5130 h2         1 HMT       0.065200
     56 H17A        69.8200   118.2870   102.7500 h2         1 HMT       0.065200
     57 H13         66.7880   118.0880    99.2990 ha         1 HMT       0.134000
     58 H4          64.7750   118.7750    98.6830 hc         1 HMT       0.066700
     59 H3          64.9370   120.0450    96.8120 h1         1 HMT       0.096700
     60 H21         69.5860   122.7430    98.2710 hc         1 HMT       0.092700
     61 H21A        68.1790   121.9790    98.9910 hc         1 HMT       0.092700
     62 H23         71.3190   119.0430    97.1790 h1         1 HMT       0.051367
     63 H23A        71.9090   119.1500    98.8630 h1         1 HMT       0.051367
     64 H23B        70.3420   118.3690    98.5130 h1         1 HMT       0.051367
     65 HO6         68.1920   122.3350    95.0780 ho         1 HMT       0.479000
     66 H24         66.9420   123.9560    98.4180 hc         1 HMT       0.056700
     67 H24A        68.2880   124.6800    97.5470 hc         1 HMT       0.056700
     68 H25         66.8470   124.7600    95.4750 hc         1 HMT       0.053200
     69 H25A        65.4980   124.1460    96.4160 hc         1 HMT       0.053200
     70 H26         65.6330   126.1080    97.9380 hc         1 HMT       0.043200
     71 H26A        67.0080   126.7310    97.0370 hc         1 HMT       0.043200
     72 H28         63.3380   126.0830    96.8790 hc         1 HMT       0.042867
     73 H28A        63.0930   126.9090    95.3290 hc         1 HMT       0.042867
     74 H28B        63.8630   125.3180    95.3760 hc         1 HMT       0.042867
     75 H29         65.0870   127.8850    94.0920 hc         1 HMT       0.042867
     76 H29A        66.7130   127.7330    94.7840 hc         1 HMT       0.042867
     77 H29B        65.8940   126.3130    94.1130 hc         1 HMT       0.042867
     78 HO9         64.5500   128.1310    97.5090 ho         1 HMT       0.434000
@<TRIPOS>BOND
     1     1     2 1   
     2     1    40 1   
     3     1    41 1   
     4     1    42 1   
     5     2     3 1   
     6     3     4 2   
     7     3    22 1   
     8     4     5 1   
     9     4    43 1   
    10     5     6 1   
    11     5     9 1   
    12     5    21 1   
    13     6     7 1   
    14     6    44 1   
    15     6    45 1   
    16     7     8 1   
    17     7    46 1   
    18     7    47 1   
    19     8     9 1   
    20     8    48 1   
    21     8    49 1   
    22     9    10 1   
    23    10    11 1   
    24    10    50 1   
    25    10    51 1   
    26    11    12 1   
    27    11    52 1   
    28    11    53 1   
    29    12    13 ar  
    30    12    20 ar  
    31    13    14 ar  
    32    13    54 1   
    33    14    15 1   
    34    14    18 ar  
    35    15    16 1   
    36    16    17 1   
    37    16    55 1   
    38    16    56 1   
    39    17    18 1   
    40    18    19 ar  
    41    19    20 ar  
    42    19    57 1   
    43    20    21 1   
    44    21    22 1   
    45    21    58 1   
    46    22    23 1   
    47    22    59 1   
    48    23    24 1   
    49    24    25 2   
    50    24    26 1   
    51    26    27 1   
    52    26    32 1   
    53    26    33 1   
    54    27    28 1   
    55    27    60 1   
    56    27    61 1   
    57    28    29 2   
    58    28    30 1   
    59    30    31 1   
    60    31    62 1   
    61    31    63 1   
    62    31    64 1   
    63    32    65 1   
    64    33    34 1   
    65    33    66 1   
    66    33    67 1   
    67    34    35 1   
    68    34    68 1   
    69    34    69 1   
    70    35    36 1   
    71    35    70 1   
    72    35    71 1   
    73    36    37 1   
    74    36    38 1   
    75    36    39 1   
    76    37    72 1   
    77    37    73 1   
    78    37    74 1   
    79    38    75 1   
    80    38    76 1   
    81    38    77 1   
    82    39    78 1   
@<TRIPOS>SUBSTRUCTURE
     1 HMT         1 TEMP              0 ****  ****    0 ROOT
