@<TRIPOS>MOLECULE
HMU
   16    16     1     0     0
SMALL
No Charge or Current Charge


@<TRIPOS>ATOM
      1 N1           1.3950    -0.0090    -1.0540 ns         1 HMU      -0.518600
      2 C2           0.3350    -0.0250    -1.9100 c          1 HMU       0.614000
      3 O2           0.4660    -0.0310    -3.1180 o          1 HMU      -0.552000
      4 N3          -0.8740    -0.0350    -1.2980 ns         1 HMU      -0.466500
      5 C4          -1.1400    -0.0290     0.0380 c          1 HMU       0.590200
      6 O3           0.9830     0.0110     3.1430 oh         1 HMU      -0.676000
      7 O4          -2.2900    -0.0390     0.4460 o          1 HMU      -0.533000
      8 C5           0.0610    -0.0120     0.9030 cc         1 HMU      -0.287400
      9 CM5         -0.2290    -0.0060     2.3820 c3         1 HMU       0.234800
     10 C6           1.3170    -0.0020     0.3290 cd         1 HMU       0.024600
     11 H1           2.2960    -0.0030    -1.5230 hn         1 HMU       0.464000
     12 H2          -1.6760    -0.0460    -1.9070 hn         1 HMU       0.345500
     13 H3           0.7190     0.0140     4.0910 ho         1 HMU       0.454000
     14 HM51        -0.8210    -0.8980     2.6340 h1         1 HMU       0.040700
     15 HM52        -0.8390     0.8760     2.6240 h1         1 HMU       0.040700
     16 H6           2.2630     0.0110     0.8700 h4         1 HMU       0.225000
@<TRIPOS>BOND
     1     1     2 1   
     2     1    10 1   
     3     1    11 1   
     4     2     3 2   
     5     2     4 1   
     6     4     5 1   
     7     4    12 1   
     8     5     7 2   
     9     5     8 1   
    10     6     9 1   
    11     6    13 1   
    12     8     9 1   
    13     8    10 2   
    14     9    14 1   
    15     9    15 1   
    16    10    16 1   
@<TRIPOS>SUBSTRUCTURE
     1 HMU         1 TEMP              0 ****  ****    0 ROOT
