@<TRIPOS>MOLECULE
HMU
   16    16     1     0     0
SMALL
bcc


@<TRIPOS>ATOM
      1 N1           1.3940    -0.0170    -1.0180 ns         1 HMU      -0.472100
      2 C2           0.3600    -0.0240    -1.9100 c          1 HMU       0.823500
      3 O2           0.5130    -0.0260    -3.1150 o          1 HMU      -0.627500
      4 N3          -0.8760    -0.0290    -1.3130 ns         1 HMU      -0.600500
      5 C4          -1.1580    -0.0260     0.0420 c          1 HMU       0.732700
      6 O3           1.0200     0.0440     3.0380 oh         1 HMU      -0.613800
      7 O4          -2.3120    -0.0330     0.4350 o          1 HMU      -0.608500
      8 C5           0.0050    -0.0140     0.9060 cc         1 HMU      -0.287400
      9 CM5         -0.2210    -0.0070     2.3850 c3         1 HMU       0.211600
     10 C6           1.2220    -0.0110     0.3350 cd         1 HMU       0.074600
     11 H1           2.3300    -0.0060    -1.3950 hn         1 HMU       0.350500
     12 H2          -1.6680    -0.0360    -1.9430 hn         1 HMU       0.345500
     13 H3           0.8620     0.0170     3.9850 ho         1 HMU       0.415000
     14 HM51        -0.7890    -0.9050     2.6650 h1         1 HMU       0.040700
     15 HM52        -0.8540     0.8510     2.6460 h1         1 HMU       0.040700
     16 H6           2.1370    -0.0030     0.9080 h4         1 HMU       0.175000
@<TRIPOS>BOND
     1     1     2 1   
     2     1    10 1   
     3     1    11 1   
     4     2     3 2   
     5     2     4 1   
     6     4     5 1   
     7     4    12 1   
     8     5     7 2   
     9     5     8 1   
    10     6     9 1   
    11     6    13 1   
    12     8     9 1   
    13     8    10 2   
    14     9    14 1   
    15     9    15 1   
    16    10    16 1   
@<TRIPOS>SUBSTRUCTURE
     1 HMU         1 TEMP              0 ****  ****    0 ROOT
