@<TRIPOS>MOLECULE
HMV
   37    39     1     0     0
SMALL
bcc


@<TRIPOS>ATOM
      1 C10          0.0640     0.3680     0.2970 ca         1 HMV      -0.109000
      2 C13          0.5880    -2.3980     0.1190 ca         1 HMV      -0.126000
      3 C15         -3.3220    -0.9130     0.5640 c3         1 HMV       0.143400
      4 C01          5.3200     1.1770    -0.3460 ca         1 HMV      -0.093000
      5 C02          4.3760     2.2000    -0.1850 ca         1 HMV      -0.172000
      6 C03          3.0350     1.9010    -0.0220 ca         1 HMV      -0.062000
      7 C04          2.6370     0.5660    -0.0210 cp         1 HMV      -0.097000
      8 C05          3.5990    -0.4530    -0.1850 ca         1 HMV       0.007800
      9 C06          4.9510    -0.1570    -0.3490 ca         1 HMV      -0.170000
     10 C07          1.3630    -0.0930     0.1160 cp         1 HMV      -0.049000
     11 C08          1.6190    -1.4760     0.0280 ca         1 HMV      -0.036200
     12 C11         -0.9730    -0.5520     0.3900 ca         1 HMV       0.108100
     13 C12         -0.7050    -1.9280     0.3000 ca         1 HMV      -0.182000
     14 C16         -4.5860    -0.1000     0.7410 c3         1 HMV       0.166800
     15 C18         -4.8750     0.4110    -1.5990 c3         1 HMV       0.149100
     16 C19         -5.9460     1.7300     0.0740 c3         1 HMV       0.149100
     17 N09          2.9700    -1.6670    -0.1510 na         1 HMV      -0.187300
     18 N17         -4.7830     0.9340    -0.2540 n3         1 HMV      -0.698600
     19 O14         -2.2130    -0.0380     0.5710 os         1 HMV      -0.306900
     20 H1          -0.1460     1.4290     0.3670 ha         1 HMV       0.151000
     21 H2           0.7730    -3.4620     0.0510 ha         1 HMV       0.132000
     22 H3          -3.2640    -1.6330     1.3880 h1         1 HMV       0.030200
     23 H4          -3.3520    -1.4930    -0.3660 h1         1 HMV       0.030200
     24 H5           6.3640     1.4330    -0.4720 ha         1 HMV       0.128000
     25 H6           4.7020     3.2320    -0.1920 ha         1 HMV       0.131000
     26 H7           2.3070     2.6930     0.1010 ha         1 HMV       0.135000
     27 H8           5.6870    -0.9400    -0.4740 ha         1 HMV       0.132000
     28 H9          -1.5020    -2.6540     0.3690 ha         1 HMV       0.131000
     29 H10         -5.4220    -0.8220     0.7610 h1         1 HMV       0.039200
     30 H11         -4.5660     0.3740     1.7270 h1         1 HMV       0.039200
     31 H12         -5.6790    -0.3320    -1.7270 h1         1 HMV       0.030367
     32 H13         -5.0660     1.2290    -2.2950 h1         1 HMV       0.030367
     33 H14         -3.9390    -0.0560    -1.9060 h1         1 HMV       0.030367
     34 H15         -5.8320     2.1700     1.0660 h1         1 HMV       0.030367
     35 H16         -6.0550     2.5460    -0.6410 h1         1 HMV       0.030367
     36 H17         -6.8850     1.1540     0.0720 h1         1 HMV       0.030367
     37 H18          3.4210    -2.5600    -0.2540 hn         1 HMV       0.300700
@<TRIPOS>BOND
     1     1    10 ar  
     2     1    12 ar  
     3     1    20 1   
     4     2    11 ar  
     5     2    13 ar  
     6     2    21 1   
     7     3    14 1   
     8     3    19 1   
     9     3    22 1   
    10     3    23 1   
    11     4     5 ar  
    12     4     9 ar  
    13     4    24 1   
    14     5     6 ar  
    15     5    25 1   
    16     6     7 ar  
    17     6    26 1   
    18     7     8 ar  
    19     7    10 1   
    20     8     9 ar  
    21     8    17 1   
    22     9    27 1   
    23    10    11 ar  
    24    11    17 1   
    25    12    13 ar  
    26    12    19 1   
    27    13    28 1   
    28    14    18 1   
    29    14    29 1   
    30    14    30 1   
    31    15    18 1   
    32    15    31 1   
    33    15    32 1   
    34    15    33 1   
    35    16    18 1   
    36    16    34 1   
    37    16    35 1   
    38    16    36 1   
    39    17    37 1   
@<TRIPOS>SUBSTRUCTURE
     1 HMV         1 TEMP              0 ****  ****    0 ROOT
