@<TRIPOS>MOLECULE
HMV
   37    39     1     0     0
SMALL
No Charge or Current Charge


@<TRIPOS>ATOM
      1 C10          0.1410     0.3350     0.2650 ca         1 HMV      -0.091000
      2 C13          0.6500    -2.4700     0.0600 ca         1 HMV      -0.108000
      3 C15         -3.3600    -0.9360     0.5800 c3         1 HMV       0.166600
      4 C01          5.4360     1.2360    -0.2810 ca         1 HMV      -0.075000
      5 C02          4.4440     2.2370    -0.1170 ca         1 HMV      -0.154000
      6 C03          3.0810     1.8910     0.0180 ca         1 HMV      -0.044000
      7 C04          2.7340     0.5270    -0.0150 cp         1 HMV      -0.097000
      8 C05          3.7220    -0.4410    -0.1770 ca         1 HMV       0.007800
      9 C06          5.0780    -0.1300    -0.3130 ca         1 HMV      -0.152000
     10 C07          1.4490    -0.1530     0.0930 cp         1 HMV      -0.049000
     11 C08          1.6750    -1.5230    -0.0050 ca         1 HMV      -0.036200
     12 C11         -0.9250    -0.5910     0.3360 ca         1 HMV       0.108100
     13 C12         -0.6680    -1.9900     0.2330 ca         1 HMV      -0.164000
     14 C16         -4.6250    -0.0530     0.7710 c3         1 HMV       0.166800
     15 C18         -5.1190     0.3290    -1.6420 c3         1 HMV       0.149100
     16 C19         -6.0250     1.8510     0.0590 c3         1 HMV       0.149100
     17 N09          3.0610    -1.6780    -0.1680 na         1 HMV      -0.237600
     18 N17         -4.9180     0.9400    -0.3070 n3         1 HMV      -0.698600
     19 O14         -2.1980    -0.0850     0.5050 os         1 HMV      -0.330100
     20 H1          -0.0480     1.4020     0.3430 ha         1 HMV       0.133000
     21 H2           0.8580    -3.5340    -0.0190 ha         1 HMV       0.114000
     22 H3          -3.2770    -1.6190     1.4350 h1         1 HMV       0.030200
     23 H4          -3.4610    -1.5400    -0.3300 h1         1 HMV       0.030200
     24 H5           6.4800     1.5220    -0.3830 ha         1 HMV       0.110000
     25 H6           4.7370     3.2840    -0.0950 ha         1 HMV       0.113000
     26 H7           2.3190     2.6570     0.1440 ha         1 HMV       0.117000
     27 H8           5.8280    -0.9070    -0.4380 ha         1 HMV       0.114000
     28 H9          -1.4760    -2.7140     0.2860 ha         1 HMV       0.113000
     29 H10         -5.4850    -0.7260     0.8890 h1         1 HMV       0.039200
     30 H11         -4.5100     0.4740     1.7280 h1         1 HMV       0.039200
     31 H12         -5.9700    -0.3650    -1.6310 h1         1 HMV       0.030367
     32 H13         -5.3190     1.1030    -2.3950 h1         1 HMV       0.030367
     33 H14         -4.2260    -0.2210    -1.9650 h1         1 HMV       0.030367
     34 H15         -5.8130     2.3580     1.0100 h1         1 HMV       0.030367
     35 H16         -6.1630     2.6230    -0.7090 h1         1 HMV       0.030367
     36 H17         -6.9680     1.2990     0.1660 h1         1 HMV       0.030367
     37 H18          3.5270    -2.5730    -0.2680 hn         1 HMV       0.351000
@<TRIPOS>BOND
     1     1    10 ar  
     2     1    12 ar  
     3     1    20 1   
     4     2    11 ar  
     5     2    13 ar  
     6     2    21 1   
     7     3    14 1   
     8     3    19 1   
     9     3    22 1   
    10     3    23 1   
    11     4     5 ar  
    12     4     9 ar  
    13     4    24 1   
    14     5     6 ar  
    15     5    25 1   
    16     6     7 ar  
    17     6    26 1   
    18     7     8 ar  
    19     7    10 1   
    20     8     9 ar  
    21     8    17 1   
    22     9    27 1   
    23    10    11 ar  
    24    11    17 1   
    25    12    13 ar  
    26    12    19 1   
    27    13    28 1   
    28    14    18 1   
    29    14    29 1   
    30    14    30 1   
    31    15    18 1   
    32    15    31 1   
    33    15    32 1   
    34    15    33 1   
    35    16    18 1   
    36    16    34 1   
    37    16    35 1   
    38    16    36 1   
    39    17    37 1   
@<TRIPOS>SUBSTRUCTURE
     1 HMV         1 TEMP              0 ****  ****    0 ROOT
