@<TRIPOS>MOLECULE
HMW
   61    65     1     0     0
SMALL
No Charge or Current Charge


@<TRIPOS>ATOM
      1 CAA         -0.6200     3.7190    -0.9860 ca         1 HMW      -0.102000
      2 CAB          0.7380     3.3610    -0.8910 ca         1 HMW      -0.080300
      3 CAC          1.0890     2.0960    -0.3620 ca         1 HMW       0.294000
      4 CAD          0.0680     1.2310     0.0850 ca         1 HMW      -0.050000
      5 CAE         -1.2980     1.5810    -0.0110 ca         1 HMW      -0.146600
      6 CAF         -1.6290     2.8430    -0.5580 ca         1 HMW      -0.096000
      7 CAG         -2.3520     0.6020     0.4760 c          1 HMW       0.624700
      8 CAJ         -4.9130     0.4150     0.6950 ca         1 HMW      -0.019000
      9 CAK         -6.0830     1.1680     0.4760 ca         1 HMW      -0.125000
     10 CAL         -7.3600     0.6440     0.7750 ca         1 HMW      -0.166300
     11 CAM         -7.4540    -0.6660     1.2890 ca         1 HMW      -0.090000
     12 CAN         -6.2950    -1.4250     1.5110 ca         1 HMW      -0.090000
     13 CAO         -5.0290    -0.8910     1.2190 ca         1 HMW      -0.105000
     14 CAP          1.8000     4.3480    -1.3750 c3         1 HMW      -0.055800
     15 CAR          3.1410     0.5470    -0.2740 ca         1 HMW       0.454900
     16 CAT          3.2070    -1.7330    -0.5380 ca         1 HMW       0.323500
     17 CAV          5.1060    -0.5110    -0.0820 ca         1 HMW       0.460900
     18 CAY          3.1940    -4.0620    -1.2850 cc         1 HMW       0.434400
     19 CBA          1.0950    -4.5200    -0.9520 cd         1 HMW       0.226900
     20 CBB          1.2360    -3.2100    -0.5610 cc         1 HMW      -0.183000
     21 CBD          7.3720    -1.6820     0.1120 c5         1 HMW       0.233800
     22 CBE          8.7780    -1.0360     0.0180 c5         1 HMW      -0.098400
     23 CBF          8.6290     0.1760     0.9690 c5         1 HMW       0.153300
     24 CBG          7.2600     0.7560     0.4840 c5         1 HMW       0.193800
     25 CBI         -8.6230     1.4790     0.5180 c3         1 HMW       0.356300
     26 FBJ         -9.0520     1.3410    -0.7560 f          1 HMW      -0.114000
     27 FBK         -9.6520     1.1220     1.3210 f          1 HMW      -0.114000
     28 FBL         -8.4150     2.8000     0.7240 f          1 HMW      -0.114000
     29 NAH         -3.6710     1.0280     0.3660 ns         1 HMW      -0.144000
     30 NAQ          2.4460     1.7410    -0.2580 nu         1 HMW      -0.933900
     31 NAS          2.4810    -0.5910    -0.5240 nb         1 HMW      -0.325000
     32 NAU          4.5410    -1.7090    -0.3150 nb         1 HMW      -0.334000
     33 NAW          4.4480     0.6560    -0.0510 nb         1 HMW      -0.360000
     34 NAX          2.5690    -2.9480    -0.7830 na         1 HMW      -0.195000
     35 NAZ          2.3020    -5.0420    -1.3980 nd         1 HMW      -0.671000
     36 NBC          6.4950    -0.4800     0.1460 nh         1 HMW      -0.762300
     37 OAI         -2.0340    -0.4910     0.9330 o          1 HMW      -0.572100
     38 H1          -0.9010     4.6870    -1.3980 ha         1 HMW       0.120000
     39 H2           0.3400     0.2810     0.5310 ha         1 HMW       0.157000
     40 H3          -2.6630     3.1670    -0.6570 ha         1 HMW       0.116000
     41 H4          -5.9980     2.1720     0.0650 ha         1 HMW       0.124000
     42 H5          -8.4250    -1.1040     1.5170 ha         1 HMW       0.132000
     43 H6          -6.3780    -2.4340     1.9090 ha         1 HMW       0.124000
     44 H7          -4.1580    -1.5110     1.4020 ha         1 HMW       0.154000
     45 H8           2.4360     4.6830    -0.5470 hc         1 HMW       0.049033
     46 H9           2.4450     3.8940    -2.1380 hc         1 HMW       0.049033
     47 H10          1.3520     5.2430    -1.8230 hc         1 HMW       0.049033
     48 H11          4.2470    -4.0980    -1.5430 h5         1 HMW       0.071100
     49 H12          0.1910    -5.1170    -0.9370 h4         1 HMW       0.041100
     50 H13          0.5230    -2.4970    -0.1660 h4         1 HMW       0.177000
     51 H14          7.1740    -2.3310    -0.7530 h1         1 HMW       0.065200
     52 H15          7.2630    -2.2790     1.0290 h1         1 HMW       0.065200
     53 H16          9.5710    -1.7240     0.3290 hc         1 HMW       0.071200
     54 H17          8.9980    -0.7190    -1.0080 hc         1 HMW       0.071200
     55 H18          8.5490    -0.1680     2.0100 h1         1 HMW       0.041700
     56 H19          6.7770     1.3410     1.2790 h1         1 HMW       0.066200
     57 H20          7.3840     1.3980    -0.3990 h1         1 HMW       0.066200
     58 H21         -3.7700     1.9550    -0.0250 hn         1 HMW       0.156000
     59 H22          3.0800     2.5360    -0.2790 hn         1 HMW       0.517000
     60 OBH          9.7210     1.0920     0.8300 oh         1 HMW      -0.643000
     61 H23          9.6120     1.7790     1.5250 ho         1 HMW       0.450000
@<TRIPOS>BOND
     1     1     2 ar  
     2     1     6 ar  
     3     1    38 1   
     4     2     3 ar  
     5     2    14 1   
     6     3     4 ar  
     7     3    30 1   
     8     4     5 ar  
     9     4    39 1   
    10     5     6 ar  
    11     5     7 1   
    12     6    40 1   
    13     7    29 1   
    14     7    37 2   
    15     8     9 ar  
    16     8    13 ar  
    17     8    29 1   
    18     9    10 ar  
    19     9    41 1   
    20    10    11 ar  
    21    10    25 1   
    22    11    12 ar  
    23    11    42 1   
    24    12    13 ar  
    25    12    43 1   
    26    13    44 1   
    27    14    45 1   
    28    14    46 1   
    29    14    47 1   
    30    15    30 1   
    31    15    31 ar  
    32    15    33 ar  
    33    16    31 ar  
    34    16    32 ar  
    35    16    34 1   
    36    17    32 ar  
    37    17    33 ar  
    38    17    36 1   
    39    18    34 1   
    40    18    35 2   
    41    18    48 1   
    42    19    20 2   
    43    19    35 1   
    44    19    49 1   
    45    20    34 1   
    46    20    50 1   
    47    21    22 1   
    48    21    36 1   
    49    21    51 1   
    50    21    52 1   
    51    22    23 1   
    52    22    53 1   
    53    22    54 1   
    54    23    24 1   
    55    23    55 1   
    56    23    60 1   
    57    24    36 1   
    58    24    56 1   
    59    24    57 1   
    60    25    26 1   
    61    25    27 1   
    62    25    28 1   
    63    29    58 1   
    64    30    59 1   
    65    60    61 1   
@<TRIPOS>SUBSTRUCTURE
     1 HMW         1 TEMP              0 ****  ****    0 ROOT
