@<TRIPOS>MOLECULE
HMW
   61    65     1     0     0
SMALL
abcg2


@<TRIPOS>ATOM
      1 CAA         -0.5020     3.9180    -0.6790 ca         1 HMW      -0.102000
      2 CAB          0.8390     3.5600    -0.5990 ca         1 HMW      -0.080300
      3 CAC          1.1630     2.3500     0.0320 ca         1 HMW       0.294000
      4 CAD          0.1640     1.5450     0.5630 ca         1 HMW      -0.050000
      5 CAE         -1.1750     1.9000     0.4350 ca         1 HMW      -0.146600
      6 CAF         -1.5050     3.1020    -0.1830 ca         1 HMW      -0.096000
      7 CAG         -2.1890     0.9820     1.0330 c          1 HMW       0.624700
      8 CAJ         -4.5970     0.3890     0.8400 ca         1 HMW      -0.019000
      9 CAK         -5.7180     0.6270     0.0430 ca         1 HMW      -0.125000
     10 CAL         -6.9290     0.0220     0.3330 ca         1 HMW      -0.166300
     11 CAM         -7.0480    -0.8390     1.4180 ca         1 HMW      -0.090000
     12 CAN         -5.9340    -1.0700     2.2060 ca         1 HMW      -0.090000
     13 CAO         -4.7130    -0.4720     1.9330 ca         1 HMW      -0.105000
     14 CAP          1.9020     4.4500    -1.1670 c3         1 HMW      -0.055800
     15 CAR          3.0860     0.7950    -0.0310 ca         1 HMW       0.454900
     16 CAT          2.9650    -1.3670    -0.5080 ca         1 HMW       0.323500
     17 CAV          4.9520    -0.4540    -0.0900 ca         1 HMW       0.460900
     18 CAY          2.6550    -3.7460    -1.0650 cc         1 HMW       0.434400
     19 CBA          0.5310    -3.8180    -1.2490 cd         1 HMW       0.226900
     20 CBB          0.8210    -2.5280    -0.9440 cc         1 HMW      -0.183000
     21 CBD          6.9930    -1.8170    -0.2330 c5         1 HMW       0.233800
     22 CBE          8.4450    -1.3640    -0.2740 c5         1 HMW      -0.098400
     23 CBF          8.4700    -0.1980     0.7030 c5         1 HMW       0.153300
     24 CBG          7.1480     0.5190     0.4040 c5         1 HMW       0.193800
     25 CBI         -8.1070     0.2510    -0.5630 c3         1 HMW       0.356300
     26 FBJ         -8.1930    -0.6940    -1.5120 f          1 HMW      -0.114000
     27 FBK         -9.2630     0.2230     0.1100 f          1 HMW      -0.114000
     28 FBL         -8.0490     1.4270    -1.1960 f          1 HMW      -0.114000
     29 NAH         -3.4270     1.0570     0.4770 ns         1 HMW      -0.144000
     30 NAQ          2.5170     2.0070     0.1500 nu         1 HMW      -0.933900
     31 NAS          2.3040    -0.2400    -0.3490 nb         1 HMW      -0.325000
     32 NAU          4.2560    -1.5650    -0.4010 nb         1 HMW      -0.334000
     33 NAW          4.4040     0.7470     0.1110 nb         1 HMW      -0.360000
     34 NAX          2.1920    -2.4840    -0.8260 na         1 HMW      -0.195000
     35 NAZ          1.6820    -4.5670    -1.3230 nd         1 HMW      -0.671000
     36 NBC          6.2710    -0.5730     0.0220 nh         1 HMW      -0.762300
     37 OAI         -1.8990     0.2230     1.9400 o          1 HMW      -0.572100
     38 H1          -0.7690     4.8560    -1.1490 ha         1 HMW       0.120000
     39 H2           0.4260     0.6320     1.0750 ha         1 HMW       0.157000
     40 H3          -2.5310     3.4380    -0.2610 ha         1 HMW       0.116000
     41 H4          -5.6290     1.2990    -0.8020 ha         1 HMW       0.124000
     42 H5          -7.9870    -1.3210     1.6560 ha         1 HMW       0.132000
     43 H6          -6.0110    -1.7330     3.0570 ha         1 HMW       0.124000
     44 H7          -3.8700    -0.6790     2.5710 ha         1 HMW       0.154000
     45 H8           2.5360     4.8750    -0.3850 hc         1 HMW       0.049033
     46 H9           2.5560     3.9100    -1.8530 hc         1 HMW       0.049033
     47 H10          1.4600     5.2820    -1.7100 hc         1 HMW       0.049033
     48 H11          3.7050    -3.9850    -1.0350 h5         1 HMW       0.071100
     49 H12         -0.4410    -4.2520    -1.4210 h4         1 HMW       0.041100
     50 H13          0.2030    -1.6590    -0.8040 h4         1 HMW       0.177000
     51 H14          6.6670    -2.2780    -1.1640 h1         1 HMW       0.065200
     52 H15          6.8200    -2.5350     0.5730 h1         1 HMW       0.065200
     53 H16          9.1350    -2.1640    -0.0090 hc         1 HMW       0.071200
     54 H17          8.7010    -1.0050    -1.2750 hc         1 HMW       0.071200
     55 H18          8.4280    -0.5930     1.7260 h1         1 HMW       0.041700
     56 H19          6.7540     1.0630     1.2630 h1         1 HMW       0.066200
     57 H20          7.2800     1.2300    -0.4180 h1         1 HMW       0.066200
     58 H21         -3.5180     1.6410    -0.3400 hn         1 HMW       0.156000
     59 H22          3.1770     2.7570     0.2970 hn         1 HMW       0.517000
     60 OBH          9.6080     0.5980     0.5140 oh         1 HMW      -0.643000
     61 H23          9.6690     1.2240     1.2420 ho         1 HMW       0.450000
@<TRIPOS>BOND
     1     1     2 ar  
     2     1     6 ar  
     3     1    38 1   
     4     2     3 ar  
     5     2    14 1   
     6     3     4 ar  
     7     3    30 1   
     8     4     5 ar  
     9     4    39 1   
    10     5     6 ar  
    11     5     7 1   
    12     6    40 1   
    13     7    29 1   
    14     7    37 2   
    15     8     9 ar  
    16     8    13 ar  
    17     8    29 1   
    18     9    10 ar  
    19     9    41 1   
    20    10    11 ar  
    21    10    25 1   
    22    11    12 ar  
    23    11    42 1   
    24    12    13 ar  
    25    12    43 1   
    26    13    44 1   
    27    14    45 1   
    28    14    46 1   
    29    14    47 1   
    30    15    30 1   
    31    15    31 ar  
    32    15    33 ar  
    33    16    31 ar  
    34    16    32 ar  
    35    16    34 1   
    36    17    32 ar  
    37    17    33 ar  
    38    17    36 1   
    39    18    34 1   
    40    18    35 2   
    41    18    48 1   
    42    19    20 2   
    43    19    35 1   
    44    19    49 1   
    45    20    34 1   
    46    20    50 1   
    47    21    22 1   
    48    21    36 1   
    49    21    51 1   
    50    21    52 1   
    51    22    23 1   
    52    22    53 1   
    53    22    54 1   
    54    23    24 1   
    55    23    55 1   
    56    23    60 1   
    57    24    36 1   
    58    24    56 1   
    59    24    57 1   
    60    25    26 1   
    61    25    27 1   
    62    25    28 1   
    63    29    58 1   
    64    30    59 1   
    65    60    61 1   
@<TRIPOS>SUBSTRUCTURE
     1 HMW         1 TEMP              0 ****  ****    0 ROOT
