@<TRIPOS>MOLECULE
HMX
   39    40     1     0     0
SMALL
No Charge or Current Charge


@<TRIPOS>ATOM
      1 C1           0.0580    -0.5640     0.2770 ca         1 HMX       0.269000
      2 N1           0.3790     1.6830     1.2000 nb         1 HMX      -0.866000
      3 C2           0.8920     0.5370     0.6910 ca         1 HMX       0.686900
      4 N2          -1.2980    -0.5290     0.3730 nb         1 HMX      -0.537000
      5 C3          -0.9490     1.7080     1.2790 ca         1 HMX       0.678900
      6 C4          -1.8190     0.6350     0.8970 ca         1 HMX       0.133500
      7 C5          -3.3300     0.7800     1.0870 c          1 HMX       0.667000
      8 C6           3.0640    -0.3400     1.5490 c3         1 HMX       0.230300
      9 C7           4.0900    -1.2710     0.8620 c3         1 HMX      -0.097900
     10 C8           5.0760    -0.5910    -0.1240 c3         1 HMX      -0.071400
     11 C9           4.4010    -0.0520    -1.4100 c3         1 HMX      -0.071400
     12 C10          3.7390     1.3460    -1.2890 c3         1 HMX      -0.097900
     13 C11          3.0460     1.6660     0.0520 c3         1 HMX       0.230300
     14 C12         -4.5630    -0.2450    -0.4500 c2         1 HMX       0.936100
     15 O1          -3.8590     1.7710     1.5750 o          1 HMX      -0.723100
     16 N5          -4.1080    -0.3010     0.7010 ne         1 HMX      -0.816100
     17 N7          -3.8880    -1.0450    -1.1970 nv         1 HMX      -1.080200
     18 N6          -5.6010    -0.9750    -0.4560 nv         1 HMX      -1.080200
     19 Cl1          0.7140    -2.0500    -0.4140 cl         1 HMX      -0.194000
     20 N3          -1.2800     2.9060     1.7750 nv         1 HMX      -1.062900
     21 N4           2.3000     0.5280     0.6300 nh         1 HMX      -0.764300
     22 H1           2.3740    -0.9670     2.1320 h1         1 HMX       0.055450
     23 H2           3.5970     0.2860     2.2780 h1         1 HMX       0.055450
     24 H3           4.6690    -1.7720     1.6460 hc         1 HMX       0.049700
     25 H4           3.5510    -2.0640     0.3310 hc         1 HMX       0.049700
     26 H5           5.6290     0.2110     0.3810 hc         1 HMX       0.039950
     27 H6           5.8210    -1.3400    -0.4200 hc         1 HMX       0.039950
     28 H7           5.1500    -0.0050    -2.2100 hc         1 HMX       0.039950
     29 H8           3.6490    -0.7760    -1.7460 hc         1 HMX       0.039950
     30 H9           4.4970     2.1180    -1.4700 hc         1 HMX       0.049700
     31 H10          3.0030     1.4460    -2.0960 hc         1 HMX       0.049700
     32 H11          3.8140     1.9940     0.7660 h1         1 HMX       0.055450
     33 H12          2.3930     2.5350    -0.1040 h1         1 HMX       0.055450
     34 H14         -3.0660    -1.2630    -0.6450 hn         1 HMX       0.508000
     35 H15         -3.6250    -0.5780    -2.0540 hn         1 HMX       0.508000
     36 H16         -5.3660    -1.7640    -1.0310 hn         1 HMX       0.508000
     37 H17         -0.5330     3.3690     2.2740 hn         1 HMX       0.509500
     38 H18         -2.2270     2.9990     2.1370 hn         1 HMX       0.509500
     39 H13         -5.6790    -1.2470     0.5080 hn         1 HMX       0.508000
@<TRIPOS>BOND
     1     1     3 ar  
     2     1     4 ar  
     3     1    19 1   
     4     2     3 ar  
     5     2     5 ar  
     6     3    21 1   
     7     4     6 ar  
     8     5     6 ar  
     9     5    20 1   
    10     6     7 1   
    11     7    15 2   
    12     7    16 1   
    13     8     9 1   
    14     8    21 1   
    15     8    22 1   
    16     8    23 1   
    17     9    10 1   
    18     9    24 1   
    19     9    25 1   
    20    10    11 1   
    21    10    26 1   
    22    10    27 1   
    23    11    12 1   
    24    11    28 1   
    25    11    29 1   
    26    12    13 1   
    27    12    30 1   
    28    12    31 1   
    29    13    21 1   
    30    13    32 1   
    31    13    33 1   
    32    14    16 2   
    33    14    17 1   
    34    14    18 1   
    35    17    34 1   
    36    17    35 1   
    37    18    36 1   
    38    18    39 1   
    39    20    37 1   
    40    20    38 1   
@<TRIPOS>SUBSTRUCTURE
     1 HMX         1 TEMP              0 ****  ****    0 ROOT
