@<TRIPOS>MOLECULE
HMX
   39    40     1     0     0
SMALL
abcg2


@<TRIPOS>ATOM
      1 C1           0.4190    -0.7880     0.9600 ca         1 HMX       0.269000
      2 N1           0.7630     1.4850     0.5070 nb         1 HMX      -0.866000
      3 C2           1.2980     0.3450     0.9290 ca         1 HMX       0.686900
      4 N2          -0.8290    -0.6730     0.6540 nb         1 HMX      -0.537000
      5 C3          -0.5200     1.6000     0.1800 ca         1 HMX       0.678900
      6 C4          -1.3790     0.4740     0.2770 ca         1 HMX       0.133500
      7 C5          -2.8290     0.5160    -0.0180 c          1 HMX       0.667000
      8 C6           3.4450    -0.6820     1.7440 c3         1 HMX       0.230300
      9 C7           4.1600    -1.4120     0.6160 c3         1 HMX      -0.097900
     10 C8           4.9620    -0.5130    -0.3260 c3         1 HMX      -0.071400
     11 C9           4.1000     0.4440    -1.1570 c3         1 HMX      -0.071400
     12 C10          3.7370     1.7670    -0.4810 c3         1 HMX      -0.097900
     13 C11          3.3340     1.6370     0.9880 c3         1 HMX       0.230300
     14 C12         -4.7690    -0.7710    -0.0820 c2         1 HMX       0.936100
     15 O1          -3.3400     1.6020    -0.3520 o          1 HMX      -0.723100
     16 N5          -3.4600    -0.6620     0.1160 ne         1 HMX      -0.816100
     17 N7          -5.6050     0.2170    -0.4030 nv         1 HMX      -1.080200
     18 N6          -5.2850    -2.0010     0.0480 nv         1 HMX      -1.080200
     19 CL1          0.9060    -2.4230     1.3580 cl         1 HMX      -0.194000
     20 N3          -0.9160     2.8050    -0.2560 nv         1 HMX      -1.062900
     21 N4           2.5970     0.4130     1.2900 nh         1 HMX      -0.764300
     22 H1           2.8860    -1.3750     2.3630 h1         1 HMX       0.055450
     23 H2           4.1890    -0.2340     2.4050 h1         1 HMX       0.055450
     24 H3           4.8250    -2.1480     1.0760 hc         1 HMX       0.049700
     25 H4           3.4340    -1.9800     0.0270 hc         1 HMX       0.049700
     26 H5           5.7210     0.0450     0.2320 hc         1 HMX       0.039950
     27 H6           5.5140    -1.1630    -1.0080 hc         1 HMX       0.039950
     28 H7           4.6180     0.6790    -2.0900 hc         1 HMX       0.039950
     29 H8           3.1860    -0.0800    -1.4560 hc         1 HMX       0.039950
     30 H9           4.5910     2.4490    -0.5220 hc         1 HMX       0.049700
     31 H10          2.9340     2.2440    -1.0460 hc         1 HMX       0.049700
     32 H11          4.2280     1.6130     1.6110 h1         1 HMX       0.055450
     33 H12          2.7600     2.5070     1.2990 h1         1 HMX       0.055450
     34 H14         -5.2260     1.1440    -0.5150 hn         1 HMX       0.508000
     35 H15         -6.5930     0.0630    -0.5080 hn         1 HMX       0.508000
     36 H16         -4.6870    -2.7410     0.3690 hn         1 HMX       0.508000
     37 H17         -0.2830     3.5800    -0.1640 hn         1 HMX       0.509500
     38 H18         -1.8990     2.9730    -0.3930 hn         1 HMX       0.509500
     39 H13         -6.2740    -2.1760     0.0110 hn         1 HMX       0.508000
@<TRIPOS>BOND
     1     1     3 ar  
     2     1     4 ar  
     3     1    19 1   
     4     2     3 ar  
     5     2     5 ar  
     6     3    21 1   
     7     4     6 ar  
     8     5     6 ar  
     9     5    20 1   
    10     6     7 1   
    11     7    15 2   
    12     7    16 1   
    13     8     9 1   
    14     8    21 1   
    15     8    22 1   
    16     8    23 1   
    17     9    10 1   
    18     9    24 1   
    19     9    25 1   
    20    10    11 1   
    21    10    26 1   
    22    10    27 1   
    23    11    12 1   
    24    11    28 1   
    25    11    29 1   
    26    12    13 1   
    27    12    30 1   
    28    12    31 1   
    29    13    21 1   
    30    13    32 1   
    31    13    33 1   
    32    14    16 2   
    33    14    17 1   
    34    14    18 1   
    35    17    34 1   
    36    17    35 1   
    37    18    36 1   
    38    18    39 1   
    39    20    37 1   
    40    20    38 1   
@<TRIPOS>SUBSTRUCTURE
     1 HMX         1 TEMP              0 ****  ****    0 ROOT
