@<TRIPOS>MOLECULE
HMY
   49    51     1     0     0
SMALL
abcg2


@<TRIPOS>ATOM
      1 O23          0.6410     0.7400     1.1100 o          1 HMY      -0.457000
      2 C7          -0.1750     1.2170     0.3650 c          1 HMY       0.617700
      3 O8           0.0570     2.3090    -0.3740 os         1 HMY      -0.501100
      4 C9           1.2580     3.1090    -0.2400 c3         1 HMY       0.202300
      5 C25          1.2930     3.8360     1.0910 c3         1 HMY      -0.123100
      6 C10          2.5410     2.3600    -0.6190 c3         1 HMY      -0.066200
      7 C11          3.3570     1.7680     0.4830 c2         1 HMY      -0.158200
      8 C12          4.0430     0.6280     0.4730 ce         1 HMY      -0.263200
      9 C2          -1.5330     0.6840     0.1560 ca         1 HMY      -0.273600
     10 C1          -2.6100     1.5180    -0.2070 ca         1 HMY       0.239100
     11 O20         -2.4870     2.8190    -0.4910 oh         1 HMY      -0.539100
     12 C6          -3.9130     1.0260    -0.2620 ca         1 HMY      -0.265000
     13 C5          -4.1510    -0.3110     0.0000 ca         1 HMY       0.208100
     14 O21         -5.3620    -0.8760    -0.0250 os         1 HMY      -0.331100
     15 C22         -6.4900    -0.0690    -0.3150 c3         1 HMY       0.145900
     16 C4          -3.0840    -1.1670     0.2970 ca         1 HMY      -0.180000
     17 C3          -1.7970    -0.6850     0.3870 ca         1 HMY       0.039700
     18 C18         -0.7310    -1.7000     0.6950 cx         1 HMY       0.138600
     19 O31         -1.0840    -3.0060     0.2800 op         1 HMY      -0.448000
     20 C17          0.0040    -2.3750    -0.3830 cx         1 HMY       0.108300
     21 C16          1.3220    -3.0960    -0.2270 c3         1 HMY      -0.097400
     22 C15          2.5770    -2.2680     0.0240 c3         1 HMY       0.185300
     23 O29          2.6160    -1.7390     1.3250 oh         1 HMY      -0.647000
     24 C14          2.7410    -1.0920    -0.9470 c3         1 HMY       0.078300
     25 O28          2.7530    -1.6290    -2.2380 oh         1 HMY      -0.640000
     26 C13          4.0560    -0.4000    -0.5920 c          1 HMY       0.542300
     27 O24          5.0940    -0.7610    -1.1020 o          1 HMY      -0.506100
     28 H9           1.0980     3.8490    -1.0220 h1         1 HMY       0.065700
     29 H25          1.3970     3.1670     1.9430 hc         1 HMY       0.054367
     30 H25A         2.1370     4.5260     1.0990 hc         1 HMY       0.054367
     31 H25B         0.3860     4.4260     1.2230 hc         1 HMY       0.054367
     32 H10          2.3320     1.6500    -1.4210 hc         1 HMY       0.055200
     33 H10A         3.1800     3.1200    -1.0830 hc         1 HMY       0.055200
     34 H11          3.5100     2.4160     1.3390 ha         1 HMY       0.175000
     35 H12          4.7260     0.4300     1.2940 ha         1 HMY       0.201000
     36 HO20        -1.5460     3.0460    -0.5690 ho         1 HMY       0.496000
     37 H6          -4.7060     1.7150    -0.5200 ha         1 HMY       0.138000
     38 H22         -7.3550    -0.7260    -0.2770 h1         1 HMY       0.046033
     39 H22A        -6.6180     0.7270     0.4220 h1         1 HMY       0.046033
     40 H22B        -6.4260     0.3750    -1.3110 h1         1 HMY       0.046033
     41 H4          -3.2920    -2.2160     0.4570 ha         1 HMY       0.152000
     42 H18         -0.2710    -1.6370     1.6770 h1         1 HMY       0.121700
     43 H17         -0.2250    -2.0470    -1.3970 h1         1 HMY       0.087700
     44 H16          1.2320    -3.8040     0.6030 hc         1 HMY       0.064200
     45 H16A         1.4720    -3.7090    -1.1180 hc         1 HMY       0.064200
     46 H15          3.4310    -2.9410    -0.1430 h1         1 HMY       0.050700
     47 HO29         2.6580    -2.4770     1.9420 ho         1 HMY       0.448000
     48 H14          1.9090    -0.3980    -0.7970 h1         1 HMY       0.067700
     49 HO28         2.7170    -0.9100    -2.8760 ho         1 HMY       0.451000
@<TRIPOS>BOND
     1     1     2 2   
     2     2     3 1   
     3     2     9 1   
     4     3     4 1   
     5     4     5 1   
     6     4     6 1   
     7     4    28 1   
     8     5    29 1   
     9     5    30 1   
    10     5    31 1   
    11     6     7 1   
    12     6    32 1   
    13     6    33 1   
    14     7     8 2   
    15     7    34 1   
    16     8    26 1   
    17     8    35 1   
    18     9    10 ar  
    19     9    17 ar  
    20    10    11 1   
    21    10    12 ar  
    22    11    36 1   
    23    12    13 ar  
    24    12    37 1   
    25    13    14 1   
    26    13    16 ar  
    27    14    15 1   
    28    15    38 1   
    29    15    39 1   
    30    15    40 1   
    31    16    17 ar  
    32    16    41 1   
    33    17    18 1   
    34    18    19 1   
    35    18    20 1   
    36    18    42 1   
    37    19    20 1   
    38    20    21 1   
    39    20    43 1   
    40    21    22 1   
    41    21    44 1   
    42    21    45 1   
    43    22    23 1   
    44    22    24 1   
    45    22    46 1   
    46    23    47 1   
    47    24    25 1   
    48    24    26 1   
    49    24    48 1   
    50    25    49 1   
    51    26    27 2   
@<TRIPOS>SUBSTRUCTURE
     1 HMY         1 TEMP              0 ****  ****    0 ROOT
