@<TRIPOS>MOLECULE
HMY
   49    51     1     0     0
SMALL
No Charge or Current Charge


@<TRIPOS>ATOM
      1 O23          0.6250     0.8210     1.1900 o          1 HMY      -0.457000
      2 C7          -0.1250     1.1780     0.2980 c          1 HMY       0.617700
      3 O8           0.0990     2.2630    -0.5230 os         1 HMY      -0.501100
      4 C9           1.2530     3.1310    -0.3940 c3         1 HMY       0.202300
      5 C25          1.1750     3.9030     0.9440 c3         1 HMY      -0.123100
      6 C10          2.5840     2.3850    -0.7120 c3         1 HMY      -0.066200
      7 C11          3.3910     1.8720     0.4770 c2         1 HMY      -0.158200
      8 C12          4.0500     0.6920     0.6000 ce         1 HMY      -0.263200
      9 C2          -1.5290     0.6400     0.1640 ca         1 HMY      -0.273600
     10 C1          -2.6090     1.5150    -0.1110 ca         1 HMY       0.239100
     11 O20         -2.4080     2.8400    -0.3310 oh         1 HMY      -0.539100
     12 C6          -3.9260     1.0540    -0.1550 ca         1 HMY      -0.265000
     13 C5          -4.2030    -0.3000     0.0730 ca         1 HMY       0.208100
     14 O21         -5.4840    -0.8140     0.0480 os         1 HMY      -0.331100
     15 C22         -6.6360     0.0080    -0.2110 c3         1 HMY       0.145900
     16 C4          -3.1490    -1.1800     0.3310 ca         1 HMY      -0.180000
     17 C3          -1.8090    -0.7400     0.3720 ca         1 HMY       0.039700
     18 C18         -0.7350    -1.7850     0.6110 cx         1 HMY       0.138600
     19 O31         -1.0600    -3.1260     0.1680 op         1 HMY      -0.448000
     20 C17          0.0250    -2.4580    -0.5080 cx         1 HMY       0.108300
     21 C16          1.3550    -3.1980    -0.3500 c3         1 HMY      -0.097400
     22 C15          2.5850    -2.3450     0.0370 c3         1 HMY       0.185300
     23 O29          2.4710    -1.9550     1.4120 oh         1 HMY      -0.647000
     24 C14          2.8290    -1.1010    -0.8660 c3         1 HMY       0.078300
     25 O28          2.8550    -1.4840    -2.2710 oh         1 HMY      -0.640000
     26 C13          4.1430    -0.3870    -0.4250 c          1 HMY       0.542300
     27 O24          5.2430    -0.7770    -0.8030 o          1 HMY      -0.506100
     28 H9           1.1600     3.8950    -1.1790 h1         1 HMY       0.065700
     29 H25          1.2770     3.2430     1.8120 hc         1 HMY       0.054367
     30 H25A         1.9720     4.6550     0.9930 hc         1 HMY       0.054367
     31 H25B         0.2160     4.4280     1.0260 hc         1 HMY       0.054367
     32 H10          2.3820     1.6000    -1.4470 hc         1 HMY       0.055200
     33 H10A         3.2240     3.0990    -1.2470 hc         1 HMY       0.055200
     34 H11          3.5000     2.6020     1.2810 ha         1 HMY       0.175000
     35 H12          4.7130     0.5460     1.4510 ha         1 HMY       0.201000
     36 HO20        -1.4370     2.9400    -0.4830 ho         1 HMY       0.496000
     37 H6          -4.7190     1.7650    -0.3640 ha         1 HMY       0.138000
     38 H22         -7.5490    -0.5980    -0.1840 h1         1 HMY       0.046033
     39 H22A        -6.7290     0.7980     0.5450 h1         1 HMY       0.046033
     40 H22B        -6.5670     0.4750    -1.2020 h1         1 HMY       0.046033
     41 H4          -3.3850    -2.2270     0.4970 ha         1 HMY       0.152000
     42 H18         -0.2630    -1.7230     1.5920 h1         1 HMY       0.121700
     43 H17         -0.1870    -2.1200    -1.5230 h1         1 HMY       0.087700
     44 H16          1.2460    -4.0070     0.3830 hc         1 HMY       0.064200
     45 H16A         1.5770    -3.7010    -1.2990 hc         1 HMY       0.064200
     46 H15          3.4670    -2.9940    -0.0690 h1         1 HMY       0.050700
     47 HO29         2.5410    -2.7710     1.9540 ho         1 HMY       0.448000
     48 H14          2.0040    -0.4030    -0.6910 h1         1 HMY       0.067700
     49 HO28         3.2280    -0.7330    -2.7850 ho         1 HMY       0.451000
@<TRIPOS>BOND
     1     1     2 2   
     2     2     3 1   
     3     2     9 1   
     4     3     4 1   
     5     4     5 1   
     6     4     6 1   
     7     4    28 1   
     8     5    29 1   
     9     5    30 1   
    10     5    31 1   
    11     6     7 1   
    12     6    32 1   
    13     6    33 1   
    14     7     8 2   
    15     7    34 1   
    16     8    26 1   
    17     8    35 1   
    18     9    10 ar  
    19     9    17 ar  
    20    10    11 1   
    21    10    12 ar  
    22    11    36 1   
    23    12    13 ar  
    24    12    37 1   
    25    13    14 1   
    26    13    16 ar  
    27    14    15 1   
    28    15    38 1   
    29    15    39 1   
    30    15    40 1   
    31    16    17 ar  
    32    16    41 1   
    33    17    18 1   
    34    18    19 1   
    35    18    20 1   
    36    18    42 1   
    37    19    20 1   
    38    20    21 1   
    39    20    43 1   
    40    21    22 1   
    41    21    44 1   
    42    21    45 1   
    43    22    23 1   
    44    22    24 1   
    45    22    46 1   
    46    23    47 1   
    47    24    25 1   
    48    24    26 1   
    49    24    48 1   
    50    25    49 1   
    51    26    27 2   
@<TRIPOS>SUBSTRUCTURE
     1 HMY         1 TEMP              0 ****  ****    0 ROOT
