@<TRIPOS>MOLECULE
HMZ
   27    27     1     0     0
SMALL
bcc


@<TRIPOS>ATOM
      1 CAA          5.0000     2.0510    -0.0460 c3         1 HMZ       0.129700
      2 OAB         -4.1220     1.8570     0.2400 o          1 HMZ      -0.845300
      3 OAC         -1.0720    -2.0260     0.1100 o          1 HMZ      -0.591100
      4 OAD         -5.5720     0.2360    -0.2370 o          1 HMZ      -0.845300
      5 OAE          1.3870    -2.6590     0.1210 oh         1 HMZ      -0.524100
      6 CAF          2.2760     1.3720    -0.0160 ca         1 HMZ      -0.288000
      7 CAG          0.9620     0.9570     0.0040 ca         1 HMZ       0.003000
      8 CAH          2.9660    -0.9470     0.0570 ca         1 HMZ      -0.254000
      9 CAI         -3.3000    -0.3760    -0.0090 c3         1 HMZ      -0.204400
     10 CAJ         -1.8990     0.2040     0.0410 c3         1 HMZ      -0.141400
     11 OAK          4.5950     0.6930    -0.0080 os         1 HMZ      -0.322900
     12 CAL         -4.4260     0.6730    -0.0060 c          1 HMZ       0.927600
     13 CAM         -0.8010    -0.8250     0.0680 c          1 HMZ       0.596700
     14 CAN          3.2900     0.4050     0.0100 ca         1 HMZ       0.197100
     15 CAO          1.6390    -1.3530     0.0760 ca         1 HMZ       0.245100
     16 CAP          0.5980    -0.3920     0.0490 ca         1 HMZ      -0.319600
     17 HAA          4.6450     2.5550    -0.9480 h1         1 HMZ       0.038033
     18 HAAA         4.6520     2.6020     0.8310 h1         1 HMZ       0.038033
     19 HAAB         6.0870     2.0460    -0.0500 h1         1 HMZ       0.038033
     20 HOAE         0.4040    -2.7610     0.1290 ho         1 HMZ       0.485000
     21 HAF          2.4950     2.4300    -0.0530 ha         1 HMZ       0.133000
     22 HAG          0.1950     1.7180    -0.0170 ha         1 HMZ       0.148000
     23 HAH          3.7530    -1.6910     0.0780 ha         1 HMZ       0.152000
     24 HAI         -3.4170    -1.0120    -0.8910 hc         1 HMZ       0.033200
     25 HAIA        -3.4600    -1.0410     0.8450 hc         1 HMZ       0.033200
     26 HAJ         -1.7320     0.8680    -0.8120 hc         1 HMZ       0.069200
     27 HAJA        -1.7860     0.8470     0.9190 hc         1 HMZ       0.069200
@<TRIPOS>BOND
     1     1    11 1   
     2     1    17 1   
     3     1    18 1   
     4     1    19 1   
     5     2    12 1   
     6     3    13 2   
     7     4    12 1   
     8     5    15 1   
     9     5    20 1   
    10     6     7 ar  
    11     6    14 ar  
    12     6    21 1   
    13     7    16 ar  
    14     7    22 1   
    15     8    14 ar  
    16     8    15 ar  
    17     8    23 1   
    18     9    10 1   
    19     9    12 1   
    20     9    24 1   
    21     9    25 1   
    22    10    13 1   
    23    10    26 1   
    24    10    27 1   
    25    11    14 1   
    26    13    16 1   
    27    15    16 ar  
@<TRIPOS>SUBSTRUCTURE
     1 HMZ         1 TEMP              0 ****  ****    0 ROOT
