@<TRIPOS>MOLECULE
HMZ
   27    27     1     0     0
SMALL
No Charge or Current Charge


@<TRIPOS>ATOM
      1 CAA          5.0750     2.1170    -0.1370 c3         1 HMZ       0.152900
      2 OAB         -4.7970     1.2610     1.0500 o          1 HMZ      -0.740000
      3 OAC         -1.0990    -2.1050     0.1920 o          1 HMZ      -0.591100
      4 OAD         -4.8070     1.1080    -1.0990 o          1 HMZ      -0.740000
      5 OAE          1.4220    -2.7180     0.2240 oh         1 HMZ      -0.563100
      6 CAF          2.2770     1.3370    -0.0680 ca         1 HMZ      -0.270000
      7 CAG          0.9360     0.9200    -0.0320 ca         1 HMZ       0.021000
      8 CAH          3.0020    -0.9650     0.0910 ca         1 HMZ      -0.236000
      9 CAI         -3.4320    -0.4190     0.0830 c3         1 HMZ      -0.204400
     10 CAJ         -1.9760     0.1340     0.0370 c3         1 HMZ      -0.141400
     11 OAK          4.6490     0.7470    -0.0380 os         1 HMZ      -0.346100
     12 CAL         -4.4470     0.7330     0.0060 c          1 HMZ       0.717000
     13 CAM         -0.8390    -0.9080     0.1060 c          1 HMZ       0.596700
     14 CAN          3.3170     0.3920    -0.0060 ca         1 HMZ       0.197100
     15 CAO          1.6690    -1.3870     0.1280 ca         1 HMZ       0.245100
     16 CAP          0.6090    -0.4540     0.0670 ca         1 HMZ      -0.319600
     17 HAA          4.7020     2.5750    -1.0630 h1         1 HMZ       0.038033
     18 HAAA         4.7110     2.7020     0.7170 h1         1 HMZ       0.038033
     19 HAAB         6.1700     2.1750    -0.1470 h1         1 HMZ       0.038033
     20 HOAE         0.4320    -2.7990     0.2340 ho         1 HMZ       0.524000
     21 HAF          2.4850     2.4000    -0.1450 ha         1 HMZ       0.115000
     22 HAG          0.1660     1.6870    -0.0830 ha         1 HMZ       0.130000
     23 HAH          3.8010    -1.6980     0.1400 ha         1 HMZ       0.134000
     24 HAI         -3.5330    -1.0740    -0.7910 hc         1 HMZ       0.033200
     25 HAIA        -3.5240    -0.9440     1.0430 hc         1 HMZ       0.033200
     26 HAJ         -1.8100     0.7460    -0.8570 hc         1 HMZ       0.069200
     27 HAJA        -1.8020     0.8660     0.8340 hc         1 HMZ       0.069200
@<TRIPOS>BOND
     1     1    11 1   
     2     1    17 1   
     3     1    18 1   
     4     1    19 1   
     5     2    12 1   
     6     3    13 2   
     7     4    12 1   
     8     5    15 1   
     9     5    20 1   
    10     6     7 ar  
    11     6    14 ar  
    12     6    21 1   
    13     7    16 ar  
    14     7    22 1   
    15     8    14 ar  
    16     8    15 ar  
    17     8    23 1   
    18     9    10 1   
    19     9    12 1   
    20     9    24 1   
    21     9    25 1   
    22    10    13 1   
    23    10    26 1   
    24    10    27 1   
    25    11    14 1   
    26    13    16 1   
    27    15    16 ar  
@<TRIPOS>SUBSTRUCTURE
     1 HMZ         1 TEMP              0 ****  ****    0 ROOT
