@<TRIPOS>MOLECULE
HN2
   42    44     1     0     0
SMALL
No Charge or Current Charge


@<TRIPOS>ATOM
      1 O10          2.2720     1.6060    -2.2550 o          1 HN2      -0.525100
      2 C10          2.0110     1.1610    -1.1440 c          1 HN2       0.587700
      3 C11          3.0800     0.4610    -0.3320 ca         1 HN2      -0.178600
      4 C16          4.0670    -0.2950    -1.0030 ca         1 HN2      -0.065000
      5 C15          5.0700    -0.9640    -0.2800 ca         1 HN2      -0.124000
      6 C14          5.1050    -0.8800     1.1200 ca         1 HN2      -0.083000
      7 C13          4.1380    -0.1210     1.7970 ca         1 HN2      -0.124000
      8 C12          3.1320     0.5500     1.0790 ca         1 HN2      -0.065000
      9 C9           0.5880     1.3020    -0.5890 c3         1 HN2      -0.218400
     10 C5          -0.3990     0.2940    -1.2530 c6         1 HN2       0.225500
     11 C6           0.0750    -1.1870    -1.1300 c6         1 HN2      -0.066400
     12 C7          -0.0160    -1.7170     0.3290 c6         1 HN2      -0.117400
     13 C8          -1.4630    -1.5710     0.8700 c6         1 HN2       0.180300
     14 O8          -1.5000    -1.9890     2.2460 oh         1 HN2      -0.663000
     15 C8A         -1.9780    -0.0980     0.7060 c5         1 HN2       0.203500
     16 C1          -3.5200     0.1040     0.8790 c5         1 HN2       0.190300
     17 O1          -4.3270    -0.8190     0.1280 oh         1 HN2      -0.641000
     18 N4          -1.7800     0.3750    -0.6960 n3         1 HN2      -0.763600
     19 C3          -2.5060     1.6750    -0.7640 c5         1 HN2       0.164800
     20 C2          -3.6800     1.5450     0.2820 c5         1 HN2       0.105300
     21 O2          -4.9890     1.7430    -0.2900 oh         1 HN2      -0.654000
     22 H16          4.0530    -0.3740    -2.0880 ha         1 HN2       0.123000
     23 H15          5.8210    -1.5480    -0.8080 ha         1 HN2       0.117000
     24 H14          5.8820    -1.3980     1.6790 ha         1 HN2       0.115000
     25 H13          4.1700    -0.0460     2.8820 ha         1 HN2       0.117000
     26 H12          2.4140     1.1490     1.6330 ha         1 HN2       0.123000
     27 H9           0.5820     1.1440     0.4910 hc         1 HN2       0.065200
     28 H9A          0.2630     2.3250    -0.8030 hc         1 HN2       0.065200
     29 H5          -0.4300     0.5400    -2.3270 h1         1 HN2       0.077700
     30 H6          -0.5560    -1.8120    -1.7760 hc         1 HN2       0.057700
     31 H6A          1.0960    -1.3100    -1.5150 hc         1 HN2       0.057700
     32 H7           0.2880    -2.7720     0.3540 hc         1 HN2       0.042200
     33 H7A          0.6880    -1.1750     0.9740 hc         1 HN2       0.042200
     34 H8          -2.1080    -2.2250     0.2640 h1         1 HN2       0.067700
     35 HO8         -1.1930    -2.9220     2.2630 ho         1 HN2       0.445000
     36 H8A         -1.4300     0.5410     1.4130 h1         1 HN2       0.031700
     37 H1          -3.8020     0.0780     1.9410 h1         1 HN2       0.058700
     38 HO1         -4.8760    -0.2120    -0.4220 ho         1 HN2       0.457000
     39 H3          -1.8680     2.5210    -0.4790 h1         1 HN2       0.044200
     40 H3A         -2.8740     1.8690    -1.7810 h1         1 HN2       0.044200
     41 H2          -3.5200     2.2800     1.0820 h1         1 HN2       0.031700
     42 HO2         -5.0580     2.6940    -0.5340 ho         1 HN2       0.451000
@<TRIPOS>BOND
     1     1     2 2   
     2     2     3 1   
     3     2     9 1   
     4     3     4 ar  
     5     3     8 ar  
     6     4     5 ar  
     7     4    22 1   
     8     5     6 ar  
     9     5    23 1   
    10     6     7 ar  
    11     6    24 1   
    12     7     8 ar  
    13     7    25 1   
    14     8    26 1   
    15     9    10 1   
    16     9    27 1   
    17     9    28 1   
    18    10    11 1   
    19    10    18 1   
    20    10    29 1   
    21    11    12 1   
    22    11    30 1   
    23    11    31 1   
    24    12    13 1   
    25    12    32 1   
    26    12    33 1   
    27    13    14 1   
    28    13    15 1   
    29    13    34 1   
    30    14    35 1   
    31    15    16 1   
    32    15    18 1   
    33    15    36 1   
    34    16    17 1   
    35    16    20 1   
    36    16    37 1   
    37    17    38 1   
    38    18    19 1   
    39    19    20 1   
    40    19    39 1   
    41    19    40 1   
    42    20    21 1   
    43    20    41 1   
    44    21    42 1   
@<TRIPOS>SUBSTRUCTURE
     1 HN2         1 TEMP              0 ****  ****    0 ROOT
