@<TRIPOS>MOLECULE
HN2
   42    44     1     0     0
SMALL
abcg2


@<TRIPOS>ATOM
      1 O10          2.2090    -0.2470    -2.1700 o          1 HN2      -0.525100
      2 C10          2.0810     0.0340    -0.9970 c          1 HN2       0.587700
      3 C11          3.2820     0.3500    -0.1680 ca         1 HN2      -0.178600
      4 C16          4.5500     0.2390    -0.7430 ca         1 HN2      -0.065000
      5 C15          5.6850     0.5260    -0.0030 ca         1 HN2      -0.124000
      6 C14          5.5700     0.9330     1.3210 ca         1 HN2      -0.083000
      7 C13          4.3150     1.0500     1.9010 ca         1 HN2      -0.124000
      8 C12          3.1780     0.7580     1.1620 ca         1 HN2      -0.065000
      9 C9           0.7290     0.0860    -0.3330 c3         1 HN2      -0.218400
     10 C5          -0.4520    -0.2890    -1.2420 c6         1 HN2       0.225500
     11 C6          -0.5710    -1.8000    -1.4590 c6         1 HN2      -0.066400
     12 C7          -1.0910    -2.5230    -0.2180 c6         1 HN2      -0.117400
     13 C8          -2.4020    -1.9140     0.2750 c6         1 HN2       0.180300
     14 O8          -2.8350    -2.4800     1.4930 oh         1 HN2      -0.663000
     15 C8A         -2.1810    -0.4300     0.5010 c5         1 HN2       0.203500
     16 C1          -3.3860     0.4220     0.8670 c5         1 HN2       0.190300
     17 O1          -4.4710     0.0980     0.0350 oh         1 HN2      -0.641000
     18 N4          -1.7240     0.1780    -0.7370 n3         1 HN2      -0.763600
     19 C3          -2.0020     1.6020    -0.7180 c5         1 HN2       0.164800
     20 C2          -2.8300     1.8140     0.5610 c5         1 HN2       0.105300
     21 O2          -3.8730     2.7460     0.4600 oh         1 HN2      -0.654000
     22 H16          4.6480    -0.0750    -1.7740 ha         1 HN2       0.123000
     23 H15          6.6620     0.4310    -0.4580 ha         1 HN2       0.117000
     24 H14          6.4580     1.1580     1.8980 ha         1 HN2       0.115000
     25 H13          4.2180     1.3670     2.9310 ha         1 HN2       0.117000
     26 H12          2.2110     0.8590     1.6360 ha         1 HN2       0.123000
     27 H9           0.7600    -0.5490     0.5570 hc         1 HN2       0.065200
     28 H9A          0.5940     1.1040     0.0530 hc         1 HN2       0.065200
     29 H5          -0.2960     0.1820    -2.2160 h1         1 HN2       0.077700
     30 H6          -1.2620    -1.9700    -2.2890 hc         1 HN2       0.057700
     31 H6A          0.3910    -2.2190    -1.7590 hc         1 HN2       0.057700
     32 H7          -1.2340    -3.5840    -0.4470 hc         1 HN2       0.042200
     33 H7A         -0.3560    -2.4760     0.5920 hc         1 HN2       0.042200
     34 H8          -3.1600    -2.0380    -0.5100 h1         1 HN2       0.067700
     35 HO8         -2.9460    -3.4270     1.3620 ho         1 HN2       0.445000
     36 H8A         -1.4520    -0.3220     1.3270 h1         1 HN2       0.031700
     37 H1          -3.6470     0.3170     1.9270 h1         1 HN2       0.058700
     38 HO1         -5.1380     0.7850     0.1320 ho         1 HN2       0.457000
     39 H3          -1.0950     2.2190    -0.6970 h1         1 HN2       0.044200
     40 H3A         -2.5710     1.9080    -1.6040 h1         1 HN2       0.044200
     41 H2          -2.1480     2.0800     1.3800 h1         1 HN2       0.031700
     42 HO2         -3.4970     3.6190     0.3140 ho         1 HN2       0.451000
@<TRIPOS>BOND
     1     1     2 2   
     2     2     3 1   
     3     2     9 1   
     4     3     4 ar  
     5     3     8 ar  
     6     4     5 ar  
     7     4    22 1   
     8     5     6 ar  
     9     5    23 1   
    10     6     7 ar  
    11     6    24 1   
    12     7     8 ar  
    13     7    25 1   
    14     8    26 1   
    15     9    10 1   
    16     9    27 1   
    17     9    28 1   
    18    10    11 1   
    19    10    18 1   
    20    10    29 1   
    21    11    12 1   
    22    11    30 1   
    23    11    31 1   
    24    12    13 1   
    25    12    32 1   
    26    12    33 1   
    27    13    14 1   
    28    13    15 1   
    29    13    34 1   
    30    14    35 1   
    31    15    16 1   
    32    15    18 1   
    33    15    36 1   
    34    16    17 1   
    35    16    20 1   
    36    16    37 1   
    37    17    38 1   
    38    18    19 1   
    39    19    20 1   
    40    19    39 1   
    41    19    40 1   
    42    20    21 1   
    43    20    41 1   
    44    21    42 1   
@<TRIPOS>SUBSTRUCTURE
     1 HN2         1 TEMP              0 ****  ****    0 ROOT
