@<TRIPOS>MOLECULE
HN3
   45    47     1     0     0
SMALL
No Charge or Current Charge


@<TRIPOS>ATOM
      1 O10         27.0990    64.0730    10.7370 o          1 HN3      -0.529100
      2 C10         27.4240    65.2080    10.4110 c          1 HN3       0.584700
      3 C11         26.3700    66.2810    10.2360 ca         1 HN3      -0.183600
      4 C16         25.0900    65.9160     9.7660 ca         1 HN3      -0.060500
      5 C15         24.0900    66.8850     9.5810 ca         1 HN3      -0.126000
      6 C14         24.3470    68.2360     9.8710 ca         1 HN3      -0.046300
      7 C17         23.2650    69.2860     9.6680 c3         1 HN3      -0.052800
      8 C13         25.6150    68.6060    10.3510 ca         1 HN3      -0.126000
      9 C12         26.6190    67.6400    10.5370 ca         1 HN3      -0.060500
     10 C9          28.9030    65.5280    10.1600 c3         1 HN3      -0.213400
     11 C5          29.3800    64.9980     8.7730 c6         1 HN3       0.219500
     12 C6          28.5600    65.5860     7.5820 c6         1 HN3      -0.066400
     13 C7          28.8890    67.0830     7.3120 c6         1 HN3      -0.101400
     14 C8          30.4150    67.2650     7.0970 c6         1 HN3       0.162300
     15 O8          30.7260    68.6510     6.8740 oh         1 HN3      -0.671000
     16 C8A         31.2100    66.6880     8.3160 c5         1 HN3       0.124500
     17 C1          32.7810    66.6400     8.1950 c5         1 HN3       0.132300
     18 O1          33.2710    66.7620     6.8410 oh         1 HN3      -0.673000
     19 N4          30.8240    65.2670     8.5100 n3         1 HN3      -0.751600
     20 C3          31.8300    64.7690     9.4800 c5         1 HN3       0.170800
     21 C2          33.1730    65.2500     8.8320 c5         1 HN3       0.174300
     22 O2          33.6360    64.3700     7.8010 oh         1 HN3      -0.657000
     23 H16         24.8690    64.8760     9.5310 ha         1 HN3       0.122500
     24 H15         23.1140    66.5840     9.2090 ha         1 HN3       0.116500
     25 H17         23.3710    70.1120    10.3810 hc         1 HN3       0.047367
     26 H17A        23.3170    69.7070     8.6570 hc         1 HN3       0.047367
     27 H17B        22.2640    68.8600     9.8040 hc         1 HN3       0.047367
     28 H13         25.8250    69.6470    10.5870 ha         1 HN3       0.116500
     29 H12         27.5780    67.9630    10.9350 ha         1 HN3       0.122500
     30 H9          29.0730    66.6040    10.2050 hc         1 HN3       0.063700
     31 H9A         29.4800    65.0390    10.9520 hc         1 HN3       0.063700
     32 H5          29.2160    63.9090     8.7790 h1         1 HN3       0.083700
     33 H6          28.7940    65.0050     6.6790 hc         1 HN3       0.060700
     34 H6A         27.4820    65.4570     7.7390 hc         1 HN3       0.060700
     35 H7          28.3430    67.4250     6.4220 hc         1 HN3       0.045200
     36 H7A         28.5430    67.7030     8.1490 hc         1 HN3       0.045200
     37 H8          30.6920    66.6740     6.2090 h1         1 HN3       0.099700
     38 HO8         30.2630    69.1590     7.5750 ho         1 HN3       0.439000
     39 H8A         30.9440    67.2770     9.2040 h1         1 HN3       0.018700
     40 H1          33.2020    67.4540     8.8010 h1         1 HN3       0.043700
     41 HO1         32.8620    67.5840     6.4800 ho         1 HN3       0.480000
     42 H3          31.7010    65.2220    10.4730 h1         1 HN3       0.047700
     43 H3A         31.7960    63.6770     9.5970 h1         1 HN3       0.047700
     44 H2          33.9490    65.3700     9.6010 h1         1 HN3       0.057700
     45 HO2         33.5860    64.9640     7.0110 ho         1 HN3       0.471000
@<TRIPOS>BOND
     1     1     2 2   
     2     2     3 1   
     3     2    10 1   
     4     3     4 ar  
     5     3     9 ar  
     6     4     5 ar  
     7     4    23 1   
     8     5     6 ar  
     9     5    24 1   
    10     6     7 1   
    11     6     8 ar  
    12     7    25 1   
    13     7    26 1   
    14     7    27 1   
    15     8     9 ar  
    16     8    28 1   
    17     9    29 1   
    18    10    11 1   
    19    10    30 1   
    20    10    31 1   
    21    11    12 1   
    22    11    19 1   
    23    11    32 1   
    24    12    13 1   
    25    12    33 1   
    26    12    34 1   
    27    13    14 1   
    28    13    35 1   
    29    13    36 1   
    30    14    15 1   
    31    14    16 1   
    32    14    37 1   
    33    15    38 1   
    34    16    17 1   
    35    16    19 1   
    36    16    39 1   
    37    17    18 1   
    38    17    21 1   
    39    17    40 1   
    40    18    41 1   
    41    19    20 1   
    42    20    21 1   
    43    20    42 1   
    44    20    43 1   
    45    21    22 1   
    46    21    44 1   
    47    22    45 1   
@<TRIPOS>SUBSTRUCTURE
     1 HN3         1 TEMP              0 ****  ****    0 ROOT
