@<TRIPOS>MOLECULE
HN3
   45    47     1     0     0
SMALL
abcg2


@<TRIPOS>ATOM
      1 O10         26.6320    64.5910     8.7210 o          1 HN3      -0.529100
      2 C10         26.9710    65.7050     9.0920 c          1 HN3       0.584700
      3 C11         25.9890    66.6130     9.7500 ca         1 HN3      -0.183600
      4 C16         24.6850    66.1580     9.9740 ca         1 HN3      -0.060500
      5 C15         23.7500    66.9670    10.5970 ca         1 HN3      -0.126000
      6 C14         24.0810    68.2610    11.0120 ca         1 HN3      -0.046300
      7 C17         23.0580    69.1480    11.6640 c3         1 HN3      -0.052800
      8 C13         25.3830    68.7140    10.7860 ca         1 HN3      -0.126000
      9 C12         26.3240    67.9060    10.1650 ca         1 HN3      -0.060500
     10 C9          28.3920    66.1950     8.9170 c3         1 HN3      -0.213400
     11 C5          29.3370    65.1650     8.2760 c6         1 HN3       0.219500
     12 C6          29.1730    65.0750     6.7500 c6         1 HN3      -0.066400
     13 C7          29.8210    66.2500     6.0020 c6         1 HN3      -0.101400
     14 C8          31.2690    66.4490     6.4350 c6         1 HN3       0.162300
     15 O8          31.9100    67.5490     5.7700 oh         1 HN3      -0.671000
     16 C8A         31.3040    66.6140     7.9470 c5         1 HN3       0.124500
     17 C1          32.6920    66.7740     8.6140 c5         1 HN3       0.132300
     18 O1          33.8010    66.6200     7.7330 oh         1 HN3      -0.673000
     19 N4          30.7460    65.4110     8.5490 n3         1 HN3      -0.751600
     20 C3          31.2690    65.3200     9.8990 c5         1 HN3       0.170800
     21 C2          32.7430    65.6640     9.6980 c5         1 HN3       0.174300
     22 O2          33.4590    64.5230     9.2340 oh         1 HN3      -0.657000
     23 H16         24.4190    65.1580     9.6600 ha         1 HN3       0.122500
     24 H15         22.7470    66.5940    10.7700 ha         1 HN3       0.116500
     25 H17         23.5150    69.7820    12.4250 hc         1 HN3       0.047367
     26 H17A        22.5970    69.8080    10.9230 hc         1 HN3       0.047367
     27 H17B        22.2630    68.5610    12.1240 hc         1 HN3       0.047367
     28 H13         25.6620    69.7110    11.1050 ha         1 HN3       0.116500
     29 H12         27.3230    68.2890    10.0090 ha         1 HN3       0.122500
     30 H9          28.3630    67.1240     8.3430 hc         1 HN3       0.063700
     31 H9A         28.7620    66.4790     9.9060 hc         1 HN3       0.063700
     32 H5          29.0960    64.1900     8.7030 h1         1 HN3       0.083700
     33 H6          29.6410    64.1450     6.4180 hc         1 HN3       0.060700
     34 H6A         28.1140    65.0130     6.4970 hc         1 HN3       0.060700
     35 H7          29.7770    66.0740     4.9250 hc         1 HN3       0.045200
     36 H7A         29.2730    67.1780     6.1980 hc         1 HN3       0.045200
     37 H8          31.8600    65.5740     6.1620 h1         1 HN3       0.099700
     38 HO8         31.4200    68.3590     5.9710 ho         1 HN3       0.439000
     39 H8A         30.7140    67.5130     8.1980 h1         1 HN3       0.018700
     40 H1          32.7490    67.7500     9.1000 h1         1 HN3       0.043700
     41 HO1         33.5840    67.0880     6.9110 ho         1 HN3       0.480000
     42 H3          30.8180    66.0420    10.6000 h1         1 HN3       0.047700
     43 H3A         31.1370    64.3180    10.3100 h1         1 HN3       0.047700
     44 H2          33.2050    66.0270    10.6190 h1         1 HN3       0.057700
     45 HO2         33.9540    64.8130     8.4510 ho         1 HN3       0.471000
@<TRIPOS>BOND
     1     1     2 2   
     2     2     3 1   
     3     2    10 1   
     4     3     4 ar  
     5     3     9 ar  
     6     4     5 ar  
     7     4    23 1   
     8     5     6 ar  
     9     5    24 1   
    10     6     7 1   
    11     6     8 ar  
    12     7    25 1   
    13     7    26 1   
    14     7    27 1   
    15     8     9 ar  
    16     8    28 1   
    17     9    29 1   
    18    10    11 1   
    19    10    30 1   
    20    10    31 1   
    21    11    12 1   
    22    11    19 1   
    23    11    32 1   
    24    12    13 1   
    25    12    33 1   
    26    12    34 1   
    27    13    14 1   
    28    13    35 1   
    29    13    36 1   
    30    14    15 1   
    31    14    16 1   
    32    14    37 1   
    33    15    38 1   
    34    16    17 1   
    35    16    19 1   
    36    16    39 1   
    37    17    18 1   
    38    17    21 1   
    39    17    40 1   
    40    18    41 1   
    41    19    20 1   
    42    20    21 1   
    43    20    42 1   
    44    20    43 1   
    45    21    22 1   
    46    21    44 1   
    47    22    45 1   
@<TRIPOS>SUBSTRUCTURE
     1 HN3         1 TEMP              0 ****  ****    0 ROOT
