@<TRIPOS>MOLECULE
HN4
   54    56     1     0     0
SMALL
No Charge or Current Charge


@<TRIPOS>ATOM
      1 O10          0.5180    -0.7230    -3.3690 o          1 HN4      -0.527100
      2 C10          0.5060    -0.1570    -2.2820 c          1 HN4       0.588700
      3 C11          1.7780    -0.0310    -1.4740 ca         1 HN4      -0.182600
      4 C12          2.7350    -1.0640    -1.5300 ca         1 HN4      -0.064500
      5 C13          3.9210    -0.9850    -0.7820 ca         1 HN4      -0.124500
      6 C14          4.1980     0.1300     0.0420 ca         1 HN4      -0.034300
      7 C17          5.5210     0.1730     0.8540 c3         1 HN4      -0.004700
      8 C18          6.7250     0.1060    -0.1230 c3         1 HN4      -0.083433
      9 C19          5.6690     1.4630     1.7090 c3         1 HN4      -0.083433
     10 C20          5.5700    -1.0450     1.8160 c3         1 HN4      -0.083433
     11 C15          3.2390     1.1710     0.0790 ca         1 HN4      -0.124500
     12 C16          2.0510     1.0940    -0.6680 ca         1 HN4      -0.064500
     13 C9          -0.8130     0.4060    -1.7380 c3         1 HN4      -0.217400
     14 C5          -1.7390    -0.7180    -1.1780 c6         1 HN4       0.225500
     15 N4          -3.0050    -0.1930    -0.5930 n3         1 HN4      -0.765600
     16 C3          -3.9130     0.6150    -1.4550 c5         1 HN4       0.165800
     17 C2          -4.8700     1.3700    -0.4520 c5         1 HN4       0.103300
     18 O2          -6.2690     1.1010    -0.6730 oh         1 HN4      -0.655000
     19 C1          -4.4050     0.8970     0.9690 c5         1 HN4       0.190300
     20 O1          -5.1820    -0.2440     1.3720 oh         1 HN4      -0.642000
     21 C8A         -2.8990     0.5820     0.6780 c5         1 HN4       0.204500
     22 C8          -2.1560    -0.2550     1.7770 c6         1 HN4       0.181300
     23 O8          -1.9050     0.5300     2.9560 oh         1 HN4      -0.663000
     24 C7          -0.8130    -0.8120     1.2350 c6         1 HN4      -0.116400
     25 C6          -1.0400    -1.5910    -0.0900 c6         1 HN4      -0.065400
     26 H12          2.5560    -1.9420    -2.1480 ha         1 HN4       0.122000
     27 H13          4.6270    -1.8080    -0.8490 ha         1 HN4       0.116000
     28 H18          6.6890     0.9380    -0.8380 hc         1 HN4       0.037033
     29 H18A         7.6760     0.1680     0.4200 hc         1 HN4       0.037033
     30 H18B         6.7330    -0.8290    -0.6940 hc         1 HN4       0.037033
     31 H19          4.8540     1.5510     2.4380 hc         1 HN4       0.037033
     32 H19A         6.6120     1.4540     2.2700 hc         1 HN4       0.037033
     33 H19B         5.6720     2.3590     1.0770 hc         1 HN4       0.037033
     34 H20          5.5650    -1.9950     1.2690 hc         1 HN4       0.037033
     35 H20A         6.4790    -1.0240     2.4300 hc         1 HN4       0.037033
     36 H20B         4.7060    -1.0390     2.4920 hc         1 HN4       0.037033
     37 H15          3.3940     2.0610     0.6810 ha         1 HN4       0.116000
     38 H16          1.3590     1.9310    -0.6210 ha         1 HN4       0.122000
     39 H9          -0.6190     1.1320    -0.9460 hc         1 HN4       0.064200
     40 H9A         -1.3130     0.9090    -2.5710 hc         1 HN4       0.064200
     41 H5          -1.9810    -1.3800    -2.0240 h1         1 HN4       0.076700
     42 H3          -3.3660     1.3570    -2.0510 h1         1 HN4       0.044200
     43 H3A         -4.4670    -0.0250    -2.1560 h1         1 HN4       0.044200
     44 H2          -4.6900     2.4500    -0.5420 h1         1 HN4       0.032700
     45 HO2         -6.5160     1.5260    -1.5260 ho         1 HN4       0.451000
     46 H1          -4.5010     1.7020     1.7100 h1         1 HN4       0.058700
     47 HO1         -5.8950    -0.2560     0.6900 ho         1 HN4       0.457000
     48 H8A         -2.3410     1.5160     0.5190 h1         1 HN4       0.031700
     49 H8          -2.7900    -1.1180     2.0310 h1         1 HN4       0.066700
     50 HO8         -1.4690    -0.0680     3.6020 ho         1 HN4       0.445000
     51 H7          -0.0980     0.0070     1.0770 hc         1 HN4       0.042200
     52 H7A         -0.3580    -1.4810     1.9790 hc         1 HN4       0.042200
     53 H6          -1.6720    -2.4660     0.1150 hc         1 HN4       0.056200
     54 H6A         -0.0900    -1.9990    -0.4580 hc         1 HN4       0.056200
@<TRIPOS>BOND
     1     1     2 2   
     2     2     3 1   
     3     2    13 1   
     4     3     4 ar  
     5     3    12 ar  
     6     4     5 ar  
     7     4    26 1   
     8     5     6 ar  
     9     5    27 1   
    10     6     7 1   
    11     6    11 ar  
    12     7     8 1   
    13     7     9 1   
    14     7    10 1   
    15     8    28 1   
    16     8    29 1   
    17     8    30 1   
    18     9    31 1   
    19     9    32 1   
    20     9    33 1   
    21    10    34 1   
    22    10    35 1   
    23    10    36 1   
    24    11    12 ar  
    25    11    37 1   
    26    12    38 1   
    27    13    14 1   
    28    13    39 1   
    29    13    40 1   
    30    14    15 1   
    31    14    25 1   
    32    14    41 1   
    33    15    16 1   
    34    15    21 1   
    35    16    17 1   
    36    16    42 1   
    37    16    43 1   
    38    17    18 1   
    39    17    19 1   
    40    17    44 1   
    41    18    45 1   
    42    19    20 1   
    43    19    21 1   
    44    19    46 1   
    45    20    47 1   
    46    21    22 1   
    47    21    48 1   
    48    22    23 1   
    49    22    24 1   
    50    22    49 1   
    51    23    50 1   
    52    24    25 1   
    53    24    51 1   
    54    24    52 1   
    55    25    53 1   
    56    25    54 1   
@<TRIPOS>SUBSTRUCTURE
     1 HN4         1 TEMP              0 ****  ****    0 ROOT
