@<TRIPOS>MOLECULE
HN4
   54    56     1     0     0
SMALL
abcg2


@<TRIPOS>ATOM
      1 O10          0.5680    -2.1180    -1.7380 o          1 HN4      -0.527100
      2 C10          0.6520    -1.1500    -1.0100 c          1 HN4       0.588700
      3 C11          1.9870    -0.6060    -0.6380 ca         1 HN4      -0.182600
      4 C12          3.1410    -1.2800    -1.0440 ca         1 HN4      -0.064500
      5 C13          4.3920    -0.7970    -0.7150 ca         1 HN4      -0.124500
      6 C14          4.5530     0.3810     0.0250 ca         1 HN4      -0.034300
      7 C17          5.9530     0.8770     0.3630 c3         1 HN4      -0.004700
      8 C18          6.7280     1.1230    -0.9390 c3         1 HN4      -0.083433
      9 C19          5.9290     2.1760     1.1680 c3         1 HN4      -0.083433
     10 C20          6.6770    -0.1920     1.1930 c3         1 HN4      -0.083433
     11 C15          3.3980     1.0480     0.4220 ca         1 HN4      -0.124500
     12 C16          2.1370     0.5640     0.1000 ca         1 HN4      -0.064500
     13 C9          -0.5710    -0.4580    -0.4640 c3         1 HN4      -0.217400
     14 C5          -1.9070    -1.1330    -0.8100 c6         1 HN4       0.225500
     15 N4          -3.0460    -0.2600    -0.6350 n3         1 HN4      -0.765600
     16 C3          -3.2190     0.8730    -1.5260 c5         1 HN4       0.165800
     17 C2          -3.7740     1.9860    -0.6240 c5         1 HN4       0.103300
     18 O2          -4.7310     2.8240    -1.2160 oh         1 HN4      -0.655000
     19 C1          -4.3900     1.2220     0.5500 c5         1 HN4       0.190300
     20 O1          -5.6260     0.6460     0.2080 oh         1 HN4      -0.642000
     21 C8A         -3.3450     0.1350     0.7320 c5         1 HN4       0.204500
     22 C8          -3.7220    -1.0990     1.5280 c6         1 HN4       0.181300
     23 O8          -4.0100    -0.6960     2.8500 oh         1 HN4      -0.663000
     24 C7          -2.5580    -2.0840     1.4610 c6         1 HN4      -0.116400
     25 C6          -2.1670    -2.3970     0.0170 c6         1 HN4      -0.065400
     26 H12          3.0590    -2.1920    -1.6200 ha         1 HN4       0.122000
     27 H13          5.2610    -1.3530    -1.0470 ha         1 HN4       0.116000
     28 H18          6.2460     1.8910    -1.5470 hc         1 HN4       0.037033
     29 H18A         7.7430     1.4580    -0.7180 hc         1 HN4       0.037033
     30 H18B         6.8060     0.2180    -1.5430 hc         1 HN4       0.037033
     31 H19          5.4190     2.0550     2.1250 hc         1 HN4       0.037033
     32 H19A         6.9510     2.4920     1.3830 hc         1 HN4       0.037033
     33 H19B         5.4430     2.9880     0.6240 hc         1 HN4       0.037033
     34 H20          6.7900    -1.1290     0.6450 hc         1 HN4       0.037033
     35 H20A         7.6770     0.1550     1.4600 hc         1 HN4       0.037033
     36 H20B         6.1390    -0.4080     2.1170 hc         1 HN4       0.037033
     37 H15          3.4610     1.9630     0.9940 ha         1 HN4       0.116000
     38 H16          1.2720     1.1230     0.4320 ha         1 HN4       0.122000
     39 H9          -0.4490    -0.3420     0.6170 hc         1 HN4       0.064200
     40 H9A         -0.5600     0.5680    -0.8540 hc         1 HN4       0.064200
     41 H5          -1.8790    -1.4220    -1.8640 h1         1 HN4       0.076700
     42 H3          -2.2840     1.1890    -2.0040 h1         1 HN4       0.044200
     43 H3A         -3.9260     0.6420    -2.3320 h1         1 HN4       0.044200
     44 H2          -2.9320     2.5700    -0.2280 h1         1 HN4       0.032700
     45 HO2         -4.3190     3.3090    -1.9370 ho         1 HN4       0.451000
     46 H1          -4.4740     1.8560     1.4410 h1         1 HN4       0.058700
     47 HO1         -6.1970     1.3450    -0.1260 ho         1 HN4       0.457000
     48 H8A         -2.4820     0.6060     1.2410 h1         1 HN4       0.031700
     49 H8          -4.5990    -1.5620     1.0570 h1         1 HN4       0.066700
     50 HO8         -4.2330    -1.4800     3.3610 ho         1 HN4       0.445000
     51 H7          -1.7070    -1.6610     2.0070 hc         1 HN4       0.042200
     52 H7A         -2.8250    -3.0120     1.9740 hc         1 HN4       0.042200
     53 H6          -2.9790    -2.9510    -0.4620 hc         1 HN4       0.056200
     54 H6A         -1.2940    -3.0500    -0.0000 hc         1 HN4       0.056200
@<TRIPOS>BOND
     1     1     2 2   
     2     2     3 1   
     3     2    13 1   
     4     3     4 ar  
     5     3    12 ar  
     6     4     5 ar  
     7     4    26 1   
     8     5     6 ar  
     9     5    27 1   
    10     6     7 1   
    11     6    11 ar  
    12     7     8 1   
    13     7     9 1   
    14     7    10 1   
    15     8    28 1   
    16     8    29 1   
    17     8    30 1   
    18     9    31 1   
    19     9    32 1   
    20     9    33 1   
    21    10    34 1   
    22    10    35 1   
    23    10    36 1   
    24    11    12 ar  
    25    11    37 1   
    26    12    38 1   
    27    13    14 1   
    28    13    39 1   
    29    13    40 1   
    30    14    15 1   
    31    14    25 1   
    32    14    41 1   
    33    15    16 1   
    34    15    21 1   
    35    16    17 1   
    36    16    42 1   
    37    16    43 1   
    38    17    18 1   
    39    17    19 1   
    40    17    44 1   
    41    18    45 1   
    42    19    20 1   
    43    19    21 1   
    44    19    46 1   
    45    20    47 1   
    46    21    22 1   
    47    21    48 1   
    48    22    23 1   
    49    22    24 1   
    50    22    49 1   
    51    23    50 1   
    52    24    25 1   
    53    24    51 1   
    54    24    52 1   
    55    25    53 1   
    56    25    54 1   
@<TRIPOS>SUBSTRUCTURE
     1 HN4         1 TEMP              0 ****  ****    0 ROOT
