@<TRIPOS>MOLECULE
HN5
   55    57     1     0     0
SMALL
No Charge or Current Charge


@<TRIPOS>ATOM
      1 O8           3.8400    -2.3280    -1.9920 oh         1 HN5      -0.661000
      2 C8           3.6960    -1.7810    -0.6700 c6         1 HN5       0.181300
      3 C8A          3.3340    -0.2550    -0.7170 c5         1 HN5       0.204500
      4 N4           3.0260     0.2550     0.6510 n3         1 HN5      -0.767600
      5 C3           2.9300     1.7340     0.4920 c5         1 HN5       0.166800
      6 C2           3.8940     2.0840    -0.7080 c5         1 HN5       0.103300
      7 O2           4.9270     3.0300    -0.3640 oh         1 HN5      -0.657000
      8 C1           4.4950     0.7030    -1.1470 c5         1 HN5       0.190300
      9 O1           5.7360     0.4810    -0.4560 oh         1 HN5      -0.645000
     10 C7           2.6180    -2.5850     0.1040 c6         1 HN5      -0.114400
     11 C6           2.3710    -1.9570     1.5040 c6         1 HN5      -0.066400
     12 C5           1.9570    -0.4570     1.4110 c6         1 HN5       0.215500
     13 C9           0.5220    -0.2580     0.8070 c3         1 HN5      -0.111400
     14 C10         -0.6290    -0.9660     1.5610 c3         1 HN5      -0.026100
     15 C11         -1.9950    -0.5660     1.0190 ca         1 HN5      -0.083300
     16 C16         -2.5080    -1.1830    -0.1340 ca         1 HN5      -0.108000
     17 C15         -3.7650    -0.8110    -0.6390 ca         1 HN5      -0.107500
     18 C14         -4.5450     0.1870    -0.0080 ca         1 HN5      -0.064300
     19 C17         -5.9290     0.5670    -0.6010 c3         1 HN5       0.000300
     20 C20         -6.8420    -0.6890    -0.6160 c3         1 HN5      -0.082433
     21 C19         -6.6560     1.6770     0.2100 c3         1 HN5      -0.082433
     22 C18         -5.7400     1.0830    -2.0530 c3         1 HN5      -0.082433
     23 C13         -4.0120     0.8010     1.1530 ca         1 HN5      -0.107500
     24 C12         -2.7540     0.4280     1.6570 ca         1 HN5      -0.108000
     25 HO8          4.1000    -3.2690    -1.8790 ho         1 HN5       0.444000
     26 H8           4.6430    -1.8880    -0.1180 h1         1 HN5       0.064700
     27 H8A          2.4700    -0.1270    -1.3840 h1         1 HN5       0.036700
     28 H3           1.9140     2.0600     0.2370 h1         1 HN5       0.043200
     29 H3A          3.2170     2.2510     1.4190 h1         1 HN5       0.043200
     30 H2           3.2930     2.4870    -1.5340 h1         1 HN5       0.036700
     31 HO2          4.4870     3.8980    -0.2120 ho         1 HN5       0.452000
     32 H1           4.6540     0.6640    -2.2340 h1         1 HN5       0.059700
     33 HO1          5.9070     1.3650    -0.0540 ho         1 HN5       0.458000
     34 H7           1.6810    -2.6140    -0.4680 hc         1 HN5       0.042700
     35 H7A          2.9420    -3.6280     0.2230 hc         1 HN5       0.042700
     36 H6           1.6250    -2.5400     2.0580 hc         1 HN5       0.048200
     37 H6A          3.2940    -2.0310     2.0950 hc         1 HN5       0.048200
     38 H5           1.9240    -0.0600     2.4370 h1         1 HN5       0.055700
     39 H9           0.2770     0.8090     0.8020 hc         1 HN5       0.045200
     40 H9A          0.4940    -0.5760    -0.2410 hc         1 HN5       0.045200
     41 H10         -0.5130    -2.0530     1.4780 hc         1 HN5       0.046200
     42 H10A        -0.5600    -0.7270     2.6290 hc         1 HN5       0.046200
     43 H16         -1.9310    -1.9520    -0.6420 ha         1 HN5       0.109000
     44 H15         -4.1300    -1.3110    -1.5330 ha         1 HN5       0.111000
     45 H20         -6.9590    -1.0940     0.3970 hc         1 HN5       0.035144
     46 H20A        -7.8400    -0.4440    -1.0000 hc         1 HN5       0.035144
     47 H20B        -6.4310    -1.4820    -1.2510 hc         1 HN5       0.035144
     48 H19         -6.0670     2.6020     0.2310 hc         1 HN5       0.035144
     49 H19A        -7.6280     1.9160    -0.2390 hc         1 HN5       0.035144
     50 H19B        -6.8410     1.3560     1.2420 hc         1 HN5       0.035144
     51 H18         -5.3150     0.3120    -2.7060 hc         1 HN5       0.035144
     52 H18A        -6.6980     1.3910    -2.4880 hc         1 HN5       0.035144
     53 H18B        -5.0660     1.9490    -2.0710 hc         1 HN5       0.035144
     54 H13         -4.5560     1.5750     1.6860 ha         1 HN5       0.111000
     55 H12         -2.3690     0.9190     2.5480 ha         1 HN5       0.109000
@<TRIPOS>BOND
     1     1     2 1   
     2     1    25 1   
     3     2     3 1   
     4     2    10 1   
     5     2    26 1   
     6     3     4 1   
     7     3     8 1   
     8     3    27 1   
     9     4     5 1   
    10     4    12 1   
    11     5     6 1   
    12     5    28 1   
    13     5    29 1   
    14     6     7 1   
    15     6     8 1   
    16     6    30 1   
    17     7    31 1   
    18     8     9 1   
    19     8    32 1   
    20     9    33 1   
    21    10    11 1   
    22    10    34 1   
    23    10    35 1   
    24    11    12 1   
    25    11    36 1   
    26    11    37 1   
    27    12    13 1   
    28    12    38 1   
    29    13    14 1   
    30    13    39 1   
    31    13    40 1   
    32    14    15 1   
    33    14    41 1   
    34    14    42 1   
    35    15    16 ar  
    36    15    24 ar  
    37    16    17 ar  
    38    16    43 1   
    39    17    18 ar  
    40    17    44 1   
    41    18    19 1   
    42    18    23 ar  
    43    19    20 1   
    44    19    21 1   
    45    19    22 1   
    46    20    45 1   
    47    20    46 1   
    48    20    47 1   
    49    21    48 1   
    50    21    49 1   
    51    21    50 1   
    52    22    51 1   
    53    22    52 1   
    54    22    53 1   
    55    23    24 ar  
    56    23    54 1   
    57    24    55 1   
@<TRIPOS>SUBSTRUCTURE
     1 HN5         1 TEMP              0 ****  ****    0 ROOT
