@<TRIPOS>MOLECULE
HN5
   55    57     1     0     0
SMALL
abcg2


@<TRIPOS>ATOM
      1 O8           4.2350    -2.0540    -1.9000 oh         1 HN5      -0.661000
      2 C8           3.8740    -1.6820    -0.5880 c6         1 HN5       0.181300
      3 C8A          3.3130    -0.2740    -0.6330 c5         1 HN5       0.204500
      4 N4           2.9350     0.1300     0.7110 n3         1 HN5      -0.767600
      5 C3           2.9180     1.5780     0.8060 c5         1 HN5       0.166800
      6 C2           3.4490     2.0560    -0.5540 c5         1 HN5       0.103300
      7 O2           4.2700     3.1930    -0.5160 oh         1 HN5      -0.657000
      8 C1           4.2340     0.8510    -1.0760 c5         1 HN5       0.190300
      9 O1           5.4840     0.7270    -0.4450 oh         1 HN5      -0.645000
     10 C7           2.8070    -2.6000     0.0070 c6         1 HN5      -0.114400
     11 C6           2.3470    -2.0990     1.3750 c6         1 HN5      -0.066400
     12 C5           1.8810    -0.6400     1.3370 c6         1 HN5       0.215500
     13 C9           0.5010    -0.4510     0.6890 c3         1 HN5      -0.111400
     14 C10         -0.6370    -1.0750     1.5000 c3         1 HN5      -0.026100
     15 C11         -1.9860    -0.6500     0.9930 ca         1 HN5      -0.083300
     16 C16         -2.6250    -1.3410    -0.0350 ca         1 HN5      -0.108000
     17 C15         -3.8460    -0.9160    -0.5340 ca         1 HN5      -0.107500
     18 C14         -4.4880     0.2190    -0.0310 ca         1 HN5      -0.064300
     19 C17         -5.8320     0.6530    -0.6070 c3         1 HN5       0.000300
     20 C20         -6.8620    -0.4660    -0.4020 c3         1 HN5      -0.082433
     21 C19         -6.3660     1.9250     0.0530 c3         1 HN5      -0.082433
     22 C18         -5.6750     0.9230    -2.1100 c3         1 HN5      -0.082433
     23 C13         -3.8460     0.9040     0.9970 ca         1 HN5      -0.107500
     24 C12         -2.6200     0.4780     1.4970 ca         1 HN5      -0.108000
     25 HO8          4.5900    -2.9480    -1.8690 ho         1 HN5       0.444000
     26 H8           4.7470    -1.6850     0.0780 h1         1 HN5       0.064700
     27 H8A          2.4600    -0.2790    -1.3360 h1         1 HN5       0.036700
     28 H3           1.9180     1.9840     0.9990 h1         1 HN5       0.043200
     29 H3A          3.5660     1.9310     1.6180 h1         1 HN5       0.043200
     30 H2           2.5980     2.2090    -1.2320 h1         1 HN5       0.036700
     31 HO2          3.7510     3.9420    -0.2100 ho         1 HN5       0.452000
     32 H1           4.3380     0.8830    -2.1680 h1         1 HN5       0.059700
     33 HO1          5.9270     1.5810    -0.4860 ho         1 HN5       0.458000
     34 H7           1.9620    -2.6540    -0.6870 hc         1 HN5       0.042700
     35 H7A          3.1990    -3.6170     0.1010 hc         1 HN5       0.042700
     36 H6           1.5570    -2.7470     1.7600 hc         1 HN5       0.048200
     37 H6A          3.1790    -2.1740     2.0810 hc         1 HN5       0.048200
     38 H5           1.7980    -0.2930     2.3740 h1         1 HN5       0.055700
     39 H9           0.3090     0.6220     0.5900 hc         1 HN5       0.045200
     40 H9A          0.4810    -0.8540    -0.3270 hc         1 HN5       0.045200
     41 H10         -0.5590    -2.1650     1.4720 hc         1 HN5       0.046200
     42 H10A        -0.5310    -0.7830     2.5500 hc         1 HN5       0.046200
     43 H16         -2.1620    -2.2290    -0.4520 ha         1 HN5       0.109000
     44 H15         -4.3010    -1.4900    -1.3320 ha         1 HN5       0.111000
     45 H20         -7.0080    -0.6800     0.6580 hc         1 HN5       0.035144
     46 H20A        -7.8260    -0.1740    -0.8230 hc         1 HN5       0.035144
     47 H20B        -6.5570    -1.3940    -0.8890 hc         1 HN5       0.035144
     48 H19         -5.6960     2.7740    -0.0940 hc         1 HN5       0.035144
     49 H19A        -7.3290     2.1880    -0.3870 hc         1 HN5       0.035144
     50 H19B        -6.5190     1.7980     1.1270 hc         1 HN5       0.035144
     51 H18         -5.3490     0.0350    -2.6530 hc         1 HN5       0.035144
     52 H18A        -6.6270     1.2390    -2.5430 hc         1 HN5       0.035144
     53 H18B        -4.9430     1.7130    -2.2930 hc         1 HN5       0.035144
     54 H13         -4.2940     1.7870     1.4320 ha         1 HN5       0.111000
     55 H12         -2.1530     1.0410     2.2980 ha         1 HN5       0.109000
@<TRIPOS>BOND
     1     1     2 1   
     2     1    25 1   
     3     2     3 1   
     4     2    10 1   
     5     2    26 1   
     6     3     4 1   
     7     3     8 1   
     8     3    27 1   
     9     4     5 1   
    10     4    12 1   
    11     5     6 1   
    12     5    28 1   
    13     5    29 1   
    14     6     7 1   
    15     6     8 1   
    16     6    30 1   
    17     7    31 1   
    18     8     9 1   
    19     8    32 1   
    20     9    33 1   
    21    10    11 1   
    22    10    34 1   
    23    10    35 1   
    24    11    12 1   
    25    11    36 1   
    26    11    37 1   
    27    12    13 1   
    28    12    38 1   
    29    13    14 1   
    30    13    39 1   
    31    13    40 1   
    32    14    15 1   
    33    14    41 1   
    34    14    42 1   
    35    15    16 ar  
    36    15    24 ar  
    37    16    17 ar  
    38    16    43 1   
    39    17    18 ar  
    40    17    44 1   
    41    18    19 1   
    42    18    23 ar  
    43    19    20 1   
    44    19    21 1   
    45    19    22 1   
    46    20    45 1   
    47    20    46 1   
    48    20    47 1   
    49    21    48 1   
    50    21    49 1   
    51    21    50 1   
    52    22    51 1   
    53    22    52 1   
    54    22    53 1   
    55    23    24 ar  
    56    23    54 1   
    57    24    55 1   
@<TRIPOS>SUBSTRUCTURE
     1 HN5         1 TEMP              0 ****  ****    0 ROOT
