@<TRIPOS>MOLECULE
HN6
   55    57     1     0     0
SMALL
No Charge or Current Charge


@<TRIPOS>ATOM
      1 O8          31.4540    68.4990     5.7660 oh         1 HN6      -0.672000
      2 C8          30.9600    67.3390     6.4570 c6         1 HN6       0.165300
      3 C8A         31.4190    67.3240     7.9500 c5         1 HN6       0.107500
      4 N4          30.8710    66.1240     8.6360 n3         1 HN6      -0.719600
      5 C3          31.5130    66.1880     9.9810 c5         1 HN6       0.150800
      6 C2          32.9450    66.7990     9.7360 c5         1 HN6       0.176300
      7 O2          34.0110    65.8870    10.0080 oh         1 HN6      -0.659000
      8 C1          32.9550    67.1700     8.2110 c5         1 HN6       0.136300
      9 O1          33.5840    66.1300     7.4230 oh         1 HN6      -0.674000
     10 C7          29.4160    67.3000     6.3870 c6         1 HN6      -0.100400
     11 C6          28.8760    66.0560     7.1380 c6         1 HN6      -0.069400
     12 C5          29.3840    65.9940     8.6110 c6         1 HN6       0.190500
     13 C9          28.8930    64.6960     9.3340 c3         1 HN6      -0.070400
     14 C10         27.3580    64.5250     9.4490 c3         1 HN6      -0.030100
     15 C11         26.6710    65.7180    10.1060 ca         1 HN6      -0.084300
     16 C16         26.9360    66.0410    11.4480 ca         1 HN6      -0.109500
     17 C15         26.3190    67.1490    12.0540 ca         1 HN6      -0.107000
     18 C14         25.4140    67.9660    11.3300 ca         1 HN6      -0.067300
     19 C17         24.7120    69.2020    11.9560 c3         1 HN6      -0.003700
     20 C20         25.0990    70.4720    11.1510 c3         1 HN6      -0.082100
     21 C19         25.1050    69.4390    13.4410 c3         1 HN6      -0.082100
     22 C18         23.1730    69.0020    11.8960 c3         1 HN6      -0.082100
     23 C13         25.1550    67.6240     9.9820 ca         1 HN6      -0.107000
     24 C12         25.7730    66.5160     9.3790 ca         1 HN6      -0.109500
     25 HO8         30.9660    69.2710     6.1280 ho         1 HN6       0.440000
     26 H8          31.3370    66.4250     5.9720 h1         1 HN6       0.098700
     27 H8A         31.0450    68.2400     8.4300 h1         1 HN6       0.023700
     28 H3          30.9430    66.8410    10.6560 h1         1 HN6       0.049700
     29 H3A         31.5690    65.1970    10.4520 h1         1 HN6       0.049700
     30 H2          33.0600    67.7050    10.3470 h1         1 HN6       0.057700
     31 HO2         34.2000    65.5350     9.1020 ho         1 HN6       0.472000
     32 H1          33.4720    68.1250     8.0460 h1         1 HN6       0.044700
     33 HO1         33.5220    66.4160     6.4840 ho         1 HN6       0.479000
     34 H7          28.9910    68.2110     6.8310 hc         1 HN6       0.046700
     35 H7A         29.0850    67.2730     5.3390 hc         1 HN6       0.046700
     36 H6          27.7790    66.0770     7.1130 hc         1 HN6       0.051200
     37 H6A         29.1820    65.1450     6.6050 hc         1 HN6       0.051200
     38 H5          28.9520    66.8520     9.1480 h1         1 HN6       0.028700
     39 H9          29.3030    63.8160     8.8240 hc         1 HN6       0.051700
     40 H9A         29.2980    64.6650    10.3520 hc         1 HN6       0.051700
     41 H10         26.9380    64.3350     8.4540 hc         1 HN6       0.049200
     42 H10A        27.1510    63.6190    10.0320 hc         1 HN6       0.049200
     43 H16         27.6260    65.4330    12.0280 ha         1 HN6       0.109000
     44 H15         26.5620    67.3530    13.0920 ha         1 HN6       0.111500
     45 H20         24.6440    71.3690    11.5900 hc         1 HN6       0.035367
     46 H20A        26.1860    70.6110    11.1480 hc         1 HN6       0.035367
     47 H20B        24.7640    70.4100    10.1090 hc         1 HN6       0.035367
     48 H19         26.1840    69.6140    13.5420 hc         1 HN6       0.035367
     49 H19A        24.5900    70.3190    13.8460 hc         1 HN6       0.035367
     50 H19B        24.8300    68.5810    14.0660 hc         1 HN6       0.035367
     51 H18         22.6490    69.8460    12.3620 hc         1 HN6       0.035367
     52 H18A        22.8150    68.9210    10.8630 hc         1 HN6       0.035367
     53 H18B        22.8810    68.0880    12.4270 hc         1 HN6       0.035367
     54 H13         24.4680    68.2190     9.3870 ha         1 HN6       0.111500
     55 H12         25.5510    66.2830     8.3400 ha         1 HN6       0.109000
@<TRIPOS>BOND
     1     1     2 1   
     2     1    25 1   
     3     2     3 1   
     4     2    10 1   
     5     2    26 1   
     6     3     4 1   
     7     3     8 1   
     8     3    27 1   
     9     4     5 1   
    10     4    12 1   
    11     5     6 1   
    12     5    28 1   
    13     5    29 1   
    14     6     7 1   
    15     6     8 1   
    16     6    30 1   
    17     7    31 1   
    18     8     9 1   
    19     8    32 1   
    20     9    33 1   
    21    10    11 1   
    22    10    34 1   
    23    10    35 1   
    24    11    12 1   
    25    11    36 1   
    26    11    37 1   
    27    12    13 1   
    28    12    38 1   
    29    13    14 1   
    30    13    39 1   
    31    13    40 1   
    32    14    15 1   
    33    14    41 1   
    34    14    42 1   
    35    15    16 ar  
    36    15    24 ar  
    37    16    17 ar  
    38    16    43 1   
    39    17    18 ar  
    40    17    44 1   
    41    18    19 1   
    42    18    23 ar  
    43    19    20 1   
    44    19    21 1   
    45    19    22 1   
    46    20    45 1   
    47    20    46 1   
    48    20    47 1   
    49    21    48 1   
    50    21    49 1   
    51    21    50 1   
    52    22    51 1   
    53    22    52 1   
    54    22    53 1   
    55    23    24 ar  
    56    23    54 1   
    57    24    55 1   
@<TRIPOS>SUBSTRUCTURE
     1 HN6         1 TEMP              0 ****  ****    0 ROOT
