@<TRIPOS>MOLECULE
HN6
   55    57     1     0     0
SMALL
abcg2


@<TRIPOS>ATOM
      1 O8          31.4870    68.3130     5.8170 oh         1 HN6      -0.672000
      2 C8          30.9500    67.1940     6.5400 c6         1 HN6       0.165300
      3 C8A         31.2120    67.3160     8.0320 c5         1 HN6       0.107500
      4 N4          30.7890    66.0870     8.6980 n3         1 HN6      -0.719600
      5 C3          31.4470    66.1260    10.0010 c5         1 HN6       0.150800
      6 C2          32.8730    66.5390     9.6460 c5         1 HN6       0.176300
      7 O2          33.6270    65.4030     9.2290 oh         1 HN6      -0.659000
      8 C1          32.6700    67.5460     8.4810 c5         1 HN6       0.136300
      9 O1          33.6490    67.3050     7.4740 oh         1 HN6      -0.674000
     10 C7          29.4540    67.0100     6.3330 c6         1 HN6      -0.100400
     11 C6          28.9230    65.8410     7.1710 c6         1 HN6      -0.069400
     12 C5          29.3360    65.9180     8.6470 c6         1 HN6       0.190500
     13 C9          28.8900    64.6840     9.4300 c3         1 HN6      -0.070400
     14 C10         27.3650    64.5080     9.5150 c3         1 HN6      -0.030100
     15 C11         26.6720    65.6910    10.1450 ca         1 HN6      -0.084300
     16 C16         26.8720    66.0100    11.4860 ca         1 HN6      -0.109500
     17 C15         26.2840    67.1340    12.0580 ca         1 HN6      -0.107000
     18 C14         25.4670    67.9870    11.3130 ca         1 HN6      -0.067300
     19 C17         24.8130    69.2410    11.9020 c3         1 HN6      -0.003700
     20 C20         25.2650    70.4760    11.1000 c3         1 HN6      -0.082100
     21 C19         25.1920    69.4600    13.3720 c3         1 HN6      -0.082100
     22 C18         23.2810    69.1090    11.8100 c3         1 HN6      -0.082100
     23 C13         25.2560    67.6530     9.9720 ca         1 HN6      -0.107000
     24 C12         25.8440    66.5320     9.4000 ca         1 HN6      -0.109500
     25 HO8         31.0430    69.1170     6.1200 ho         1 HN6       0.440000
     26 H8          31.4910    66.3280     6.1570 h1         1 HN6       0.098700
     27 H8A         30.6170    68.1720     8.4030 h1         1 HN6       0.023700
     28 H3          30.9940    66.8740    10.6750 h1         1 HN6       0.049700
     29 H3A         31.4330    65.1590    10.5000 h1         1 HN6       0.049700
     30 H2          33.3790    67.0060    10.4940 h1         1 HN6       0.057700
     31 HO2         33.9830    65.6160     8.3520 ho         1 HN6       0.472000
     32 H1          32.7820    68.5650     8.8550 h1         1 HN6       0.044700
     33 HO1         33.3550    67.7660     6.6740 ho         1 HN6       0.479000
     34 H7          28.9520    67.9370     6.6350 hc         1 HN6       0.046700
     35 H7A         29.2370    66.8500     5.2750 hc         1 HN6       0.046700
     36 H6          27.8360    65.8120     7.0940 hc         1 HN6       0.051200
     37 H6A         29.3010    64.8980     6.7630 hc         1 HN6       0.051200
     38 H5          28.8550    66.8050     9.0970 h1         1 HN6       0.028700
     39 H9          29.3340    63.7930     8.9750 hc         1 HN6       0.051700
     40 H9A         29.2790    64.7480    10.4470 hc         1 HN6       0.051700
     41 H10         26.9470    64.3290     8.5240 hc         1 HN6       0.049200
     42 H10A        27.1660    63.6090    10.1060 hc         1 HN6       0.049200
     43 H16         27.5060    65.3780    12.0970 ha         1 HN6       0.109000
     44 H15         26.4760    67.3390    13.1020 ha         1 HN6       0.111500
     45 H20         24.8070    71.3790    11.5120 hc         1 HN6       0.035367
     46 H20A        26.3500    70.5910    11.1460 hc         1 HN6       0.035367
     47 H20B        24.9750    70.4000    10.0510 hc         1 HN6       0.035367
     48 H19         26.2690    69.5840    13.4950 hc         1 HN6       0.035367
     49 H19A        24.7050    70.3650    13.7390 hc         1 HN6       0.035367
     50 H19B        24.8690    68.6280    14.0010 hc         1 HN6       0.035367
     51 H18         22.8020    70.0000    12.2220 hc         1 HN6       0.035367
     52 H18A        22.9530    68.9940    10.7770 hc         1 HN6       0.035367
     53 H18B        22.9340    68.2410    12.3760 hc         1 HN6       0.035367
     54 H13         24.6250    68.2790     9.3540 ha         1 HN6       0.111500
     55 H12         25.6660    66.3110     8.3540 ha         1 HN6       0.109000
@<TRIPOS>BOND
     1     1     2 1   
     2     1    25 1   
     3     2     3 1   
     4     2    10 1   
     5     2    26 1   
     6     3     4 1   
     7     3     8 1   
     8     3    27 1   
     9     4     5 1   
    10     4    12 1   
    11     5     6 1   
    12     5    28 1   
    13     5    29 1   
    14     6     7 1   
    15     6     8 1   
    16     6    30 1   
    17     7    31 1   
    18     8     9 1   
    19     8    32 1   
    20     9    33 1   
    21    10    11 1   
    22    10    34 1   
    23    10    35 1   
    24    11    12 1   
    25    11    36 1   
    26    11    37 1   
    27    12    13 1   
    28    12    38 1   
    29    13    14 1   
    30    13    39 1   
    31    13    40 1   
    32    14    15 1   
    33    14    41 1   
    34    14    42 1   
    35    15    16 ar  
    36    15    24 ar  
    37    16    17 ar  
    38    16    43 1   
    39    17    18 ar  
    40    17    44 1   
    41    18    19 1   
    42    18    23 ar  
    43    19    20 1   
    44    19    21 1   
    45    19    22 1   
    46    20    45 1   
    47    20    46 1   
    48    20    47 1   
    49    21    48 1   
    50    21    49 1   
    51    21    50 1   
    52    22    51 1   
    53    22    52 1   
    54    22    53 1   
    55    23    24 ar  
    56    23    54 1   
    57    24    55 1   
@<TRIPOS>SUBSTRUCTURE
     1 HN6         1 TEMP              0 ****  ****    0 ROOT
