@<TRIPOS>MOLECULE
HN7
   54    56     1     0     0
SMALL
abcg2


@<TRIPOS>ATOM
      1 O10          0.5830    -1.9220     1.4600 o          1 HN7      -0.530100
      2 C10          0.7780    -0.9460     0.7650 c          1 HN7       0.585700
      3 C11          2.1680    -0.5260     0.4360 ca         1 HN7      -0.183600
      4 C12          3.2400    -1.3060     0.8780 ca         1 HN7      -0.063500
      5 C13          4.5410    -0.9440     0.5920 ca         1 HN7      -0.125000
      6 C14          4.8360     0.2100    -0.1430 ca         1 HN7      -0.034300
      7 C17          6.2870     0.5690    -0.4350 c3         1 HN7      -0.004700
      8 C18          6.9510    -0.5860    -1.1960 c3         1 HN7      -0.083100
      9 C19          6.4120     1.8360    -1.2800 c3         1 HN7      -0.083100
     10 C20          7.0210     0.7950     0.8940 c3         1 HN7      -0.083100
     11 C15          3.7630     0.9860    -0.5740 ca         1 HN7      -0.125000
     12 C16          2.4520     0.6260    -0.2910 ca         1 HN7      -0.063500
     13 C9          -0.3570    -0.1020     0.2400 c3         1 HN7      -0.179400
     14 C5          -1.7450    -0.7210     0.3810 c6         1 HN7       0.208500
     15 C6          -1.9070    -1.9030    -0.5770 c6         1 HN7      -0.071400
     16 C7          -3.3290    -2.4470    -0.5890 c6         1 HN7      -0.115400
     17 C8          -4.3190    -1.3360    -0.9100 c6         1 HN7       0.181300
     18 O8          -5.6620    -1.7590    -0.8240 oh         1 HN7      -0.661000
     19 N4          -2.7540     0.2730     0.0580 n3         1 HN7      -0.735600
     20 C3          -2.7310     1.5140     0.8220 c5         1 HN7       0.145800
     21 C2          -4.2040     1.9610     0.9140 c5         1 HN7       0.110300
     22 O2          -4.4490     3.3030     0.5820 oh         1 HN7      -0.656000
     23 C1          -4.9420     1.0360    -0.0580 c5         1 HN7       0.193300
     24 O1          -4.8620     1.4840    -1.3870 oh         1 HN7      -0.640000
     25 C8A         -4.1190    -0.2290     0.1060 c5         1 HN7       0.190500
     26 H12          3.0510    -2.2040     1.4500 ha         1 HN7       0.123000
     27 H13          5.3440    -1.5760     0.9500 ha         1 HN7       0.116500
     28 H18          6.4240    -0.8020    -2.1270 hc         1 HN7       0.036700
     29 H18A         7.9810    -0.3270    -1.4470 hc         1 HN7       0.036700
     30 H18B         6.9800    -1.5050    -0.6090 hc         1 HN7       0.036700
     31 H19          5.9750     2.7060    -0.7870 hc         1 HN7       0.036700
     32 H19A         7.4660     2.0570    -1.4540 hc         1 HN7       0.036700
     33 H19B         5.9360     1.7250    -2.2570 hc         1 HN7       0.036700
     34 H20          6.9920    -0.0890     1.5310 hc         1 HN7       0.036700
     35 H20A         8.0710     1.0350     0.7110 hc         1 HN7       0.036700
     36 H20B         6.5810     1.6240     1.4510 hc         1 HN7       0.036700
     37 H15          3.9330     1.8890    -1.1420 ha         1 HN7       0.116500
     38 H16          1.6570     1.2680    -0.6470 ha         1 HN7       0.123000
     39 H9          -0.3000     0.8460     0.7870 hc         1 HN7       0.071200
     40 H9A         -0.1810     0.1550    -0.8080 hc         1 HN7       0.071200
     41 H5          -1.8780    -1.0800     1.4180 h1         1 HN7       0.038700
     42 H6          -1.6390    -1.5680    -1.5840 hc         1 HN7       0.054200
     43 H6A         -1.2120    -2.6990    -0.3090 hc         1 HN7       0.054200
     44 H7          -3.4120    -3.2570    -1.3200 hc         1 HN7       0.046700
     45 H7A         -3.5760    -2.8710     0.3910 hc         1 HN7       0.046700
     46 H8          -4.0900    -0.9430    -1.9100 h1         1 HN7       0.064700
     47 HO8         -5.7890    -2.4820    -1.4450 ho         1 HN7       0.445000
     48 H3          -2.3190     1.3740     1.8310 h1         1 HN7       0.041200
     49 H3A         -2.1220     2.2770     0.3270 h1         1 HN7       0.041200
     50 H2          -4.5760     1.7380     1.9220 h1         1 HN7       0.034700
     51 HO2         -4.0560     3.8670     1.2530 ho         1 HN7       0.450000
     52 H1          -5.9830     0.8850     0.2530 h1         1 HN7       0.058700
     53 HO1         -5.1730     2.3940    -1.4140 ho         1 HN7       0.456000
     54 H8A         -4.3630    -0.6490     1.1030 h1         1 HN7       0.035700
@<TRIPOS>BOND
     1     1     2 2   
     2     2     3 1   
     3     2    13 1   
     4     3     4 ar  
     5     3    12 ar  
     6     4     5 ar  
     7     4    26 1   
     8     5     6 ar  
     9     5    27 1   
    10     6     7 1   
    11     6    11 ar  
    12     7     8 1   
    13     7     9 1   
    14     7    10 1   
    15     8    28 1   
    16     8    29 1   
    17     8    30 1   
    18     9    31 1   
    19     9    32 1   
    20     9    33 1   
    21    10    34 1   
    22    10    35 1   
    23    10    36 1   
    24    11    12 ar  
    25    11    37 1   
    26    12    38 1   
    27    13    14 1   
    28    13    39 1   
    29    13    40 1   
    30    14    15 1   
    31    14    19 1   
    32    14    41 1   
    33    15    16 1   
    34    15    42 1   
    35    15    43 1   
    36    16    17 1   
    37    16    44 1   
    38    16    45 1   
    39    17    18 1   
    40    17    25 1   
    41    17    46 1   
    42    18    47 1   
    43    19    20 1   
    44    19    25 1   
    45    20    21 1   
    46    20    48 1   
    47    20    49 1   
    48    21    22 1   
    49    21    23 1   
    50    21    50 1   
    51    22    51 1   
    52    23    24 1   
    53    23    25 1   
    54    23    52 1   
    55    24    53 1   
    56    25    54 1   
@<TRIPOS>SUBSTRUCTURE
     1 HN7         1 TEMP              0 ****  ****    0 ROOT
