@<TRIPOS>MOLECULE
HN7
   54    56     1     0     0
SMALL
No Charge or Current Charge


@<TRIPOS>ATOM
      1 O10          0.5750    -0.9830     2.9720 o          1 HN7      -0.530100
      2 C10          0.6840    -0.2430     2.0000 c          1 HN7       0.585700
      3 C11          2.0090    -0.1530     1.2560 ca         1 HN7      -0.183600
      4 C12          3.1420    -0.8090     1.7860 ca         1 HN7      -0.063500
      5 C13          4.3820    -0.7570     1.1300 ca         1 HN7      -0.125000
      6 C14          4.5450    -0.0530    -0.0820 ca         1 HN7      -0.034300
      7 C17          5.9350    -0.0240    -0.7740 c3         1 HN7      -0.004700
      8 C18          6.3700    -1.4760    -1.1100 c3         1 HN7      -0.083100
      9 C19          5.9410     0.7950    -2.0960 c3         1 HN7      -0.083100
     10 C20          6.9730     0.6160     0.1880 c3         1 HN7      -0.083100
     11 C15          3.4080     0.6010    -0.6140 ca         1 HN7      -0.125000
     12 C16          2.1650     0.5520     0.0410 ca         1 HN7      -0.063500
     13 C9          -0.5370     0.5800     1.5650 c3         1 HN7      -0.179400
     14 C5          -1.5820    -0.2690     0.7870 c6         1 HN7       0.208500
     15 C6          -0.9720    -0.9460    -0.4780 c6         1 HN7      -0.071400
     16 C7          -2.0320    -1.7530    -1.2710 c6         1 HN7      -0.115400
     17 C8          -3.2290    -0.8490    -1.6550 c6         1 HN7       0.181300
     18 O8          -4.2180    -1.6350    -2.3410 oh         1 HN7      -0.661000
     19 N4          -2.7600     0.5470     0.3860 n3         1 HN7      -0.735600
     20 C3          -3.5270     1.2130     1.4750 c5         1 HN7       0.145800
     21 C2          -4.9280     1.5670     0.8410 c5         1 HN7       0.110300
     22 O2          -5.2050     2.9820     0.8090 oh         1 HN7      -0.656000
     23 C1          -4.8690     0.9550    -0.6030 c5         1 HN7       0.193300
     24 O1          -4.4460     1.9620    -1.5370 oh         1 HN7      -0.640000
     25 C8A         -3.8210    -0.1820    -0.3700 c5         1 HN7       0.190500
     26 H12          3.0700    -1.3660     2.7180 ha         1 HN7       0.123000
     27 H13          5.2240    -1.2780     1.5800 ha         1 HN7       0.116500
     28 H18          5.6310    -1.9610    -1.7590 hc         1 HN7       0.036700
     29 H18A         7.3360    -1.4860    -1.6300 hc         1 HN7       0.036700
     30 H18B         6.4770    -2.0860    -0.2060 hc         1 HN7       0.036700
     31 H19          5.6650     1.8410    -1.9150 hc         1 HN7       0.036700
     32 H19A         6.9390     0.7920    -2.5530 hc         1 HN7       0.036700
     33 H19B         5.2440     0.3700    -2.8280 hc         1 HN7       0.036700
     34 H20          7.0870     0.0310     1.1080 hc         1 HN7       0.036700
     35 H20A         7.9600     0.6810    -0.2860 hc         1 HN7       0.036700
     36 H20B         6.6650     1.6300     0.4690 hc         1 HN7       0.036700
     37 H15          3.4600     1.1580    -1.5440 ha         1 HN7       0.116500
     38 H16          1.3340     1.0690    -0.4280 ha         1 HN7       0.123000
     39 H9          -1.0030     0.9600     2.4800 hc         1 HN7       0.071200
     40 H9A         -0.2370     1.4310     0.9510 hc         1 HN7       0.071200
     41 H5          -1.9180    -1.0700     1.4620 h1         1 HN7       0.038700
     42 H6          -0.5410    -0.1800    -1.1360 hc         1 HN7       0.054200
     43 H6A         -0.1500    -1.6180    -0.1960 hc         1 HN7       0.054200
     44 H7          -1.5730    -2.1780    -2.1740 hc         1 HN7       0.046700
     45 H7A         -2.3800    -2.6000    -0.6630 hc         1 HN7       0.046700
     46 H8          -2.8560    -0.0520    -2.3170 h1         1 HN7       0.064700
     47 HO8         -3.7860    -1.9830    -3.1520 ho         1 HN7       0.445000
     48 H3          -3.6660     0.5330     2.3280 h1         1 HN7       0.041200
     49 H3A         -3.0070     2.1060     1.8450 h1         1 HN7       0.041200
     50 H2          -5.7140     1.0570     1.4140 h1         1 HN7       0.034700
     51 HO2         -5.3230     3.2740     1.7410 ho         1 HN7       0.450000
     52 H1          -5.8410     0.5400    -0.9030 h1         1 HN7       0.058700
     53 HO1         -4.4700     2.7760    -0.9810 ho         1 HN7       0.456000
     54 H8A         -4.2560    -0.9780     0.2520 h1         1 HN7       0.035700
@<TRIPOS>BOND
     1     1     2 2   
     2     2     3 1   
     3     2    13 1   
     4     3     4 ar  
     5     3    12 ar  
     6     4     5 ar  
     7     4    26 1   
     8     5     6 ar  
     9     5    27 1   
    10     6     7 1   
    11     6    11 ar  
    12     7     8 1   
    13     7     9 1   
    14     7    10 1   
    15     8    28 1   
    16     8    29 1   
    17     8    30 1   
    18     9    31 1   
    19     9    32 1   
    20     9    33 1   
    21    10    34 1   
    22    10    35 1   
    23    10    36 1   
    24    11    12 ar  
    25    11    37 1   
    26    12    38 1   
    27    13    14 1   
    28    13    39 1   
    29    13    40 1   
    30    14    15 1   
    31    14    19 1   
    32    14    41 1   
    33    15    16 1   
    34    15    42 1   
    35    15    43 1   
    36    16    17 1   
    37    16    44 1   
    38    16    45 1   
    39    17    18 1   
    40    17    25 1   
    41    17    46 1   
    42    18    47 1   
    43    19    20 1   
    44    19    25 1   
    45    20    21 1   
    46    20    48 1   
    47    20    49 1   
    48    21    22 1   
    49    21    23 1   
    50    21    50 1   
    51    22    51 1   
    52    23    24 1   
    53    23    25 1   
    54    23    52 1   
    55    24    53 1   
    56    25    54 1   
@<TRIPOS>SUBSTRUCTURE
     1 HN7         1 TEMP              0 ****  ****    0 ROOT
