@<TRIPOS>MOLECULE
HN8
   41    45     1     0     0
SMALL
No Charge or Current Charge


@<TRIPOS>ATOM
      1 C1          -0.8310    -0.3080     0.6500 c5         1 HN8       0.003500
      2 C2          -1.6050    -0.6880    -0.6530 c5         1 HN8       0.163500
      3 O2           3.7590     1.7780     0.9440 os         1 HN8      -0.344100
      4 C10         -2.6830     1.3750     0.9880 c2         1 HN8      -0.246200
      5 C11          1.4920     0.8450     0.8550 ca         1 HN8      -0.082000
      6 C12          2.5580    -0.8910    -1.1160 ca         1 HN8      -0.094000
      7 C13          2.8300     0.9190     0.4530 ca         1 HN8       0.048100
      8 C14          3.3440     0.0840    -0.4960 ca         1 HN8       0.055100
      9 C15         -3.9070     3.0040    -1.2250 c3         1 HN8       0.147900
     10 C16          4.9500     1.4660     0.1360 c5         1 HN8       0.372600
     11 C17         -3.1440    -0.6260    -0.5020 c6         1 HN8      -0.057400
     12 C3          -0.8760    -1.6330     1.5100 c5         1 HN8       0.146300
     13 C4          -1.2200    -2.7340     0.4370 c5         1 HN8       0.103800
     14 C5           0.6490    -0.1210     0.2460 ca         1 HN8      -0.066300
     15 C6           0.3050    -2.0380    -1.4240 c6         1 HN8       0.195100
     16 C7          -1.4720     0.9040     1.3590 c2         1 HN8      -0.154200
     17 C8           1.2000    -0.9940    -0.7400 ca         1 HN8      -0.111300
     18 C9          -3.5400     0.8240    -0.1520 c6         1 HN8       0.204500
     19 N1          -1.0860    -2.0640    -0.8930 n3         1 HN8      -0.664600
     20 O1          -3.4050     1.6580    -1.3200 os         1 HN8      -0.456000
     21 O3           4.6620     0.3100    -0.7290 os         1 HN8      -0.343100
     22 O4          -1.8460    -1.6030     2.5680 oh         1 HN8      -0.648000
     23 H1          -1.3370    -0.0080    -1.4760 h1         1 HN8       0.087700
     24 H2          -3.1280     2.2050     1.5380 ha         1 HN8       0.173000
     25 H3           1.1330     1.5210     1.6240 ha         1 HN8       0.136000
     26 H4           2.9860    -1.5470    -1.8700 ha         1 HN8       0.133000
     27 H5          -3.8030     3.5160    -2.1900 h1         1 HN8       0.026700
     28 H6          -4.9700     3.0040    -0.9510 h1         1 HN8       0.026700
     29 H7          -3.3520     3.5810    -0.4750 h1         1 HN8       0.026700
     30 H8           5.1920     2.3310    -0.4920 h2         1 HN8       0.064200
     31 H9           5.7930     1.2320     0.7960 h2         1 HN8       0.064200
     32 H10         -3.6330    -0.9410    -1.4320 hc         1 HN8       0.064700
     33 H11         -3.5060    -1.2910     0.2900 hc         1 HN8       0.064700
     34 H12          0.1160    -1.8270     1.9420 h1         1 HN8       0.044700
     35 H13         -0.5520    -3.6020     0.5270 h1         1 HN8       0.059200
     36 H14         -2.2410    -3.1120     0.5800 h1         1 HN8       0.059200
     37 H15          0.2780    -1.7980    -2.4980 h1         1 HN8       0.066200
     38 H16          0.7710    -3.0310    -1.3410 h1         1 HN8       0.066200
     39 H17         -0.9800     1.3560     2.2210 ha         1 HN8       0.175000
     40 H18         -4.5980     0.8290     0.1510 h1         1 HN8       0.040700
     41 H20         -1.7220    -2.4220     3.0950 ho         1 HN8       0.443000
@<TRIPOS>BOND
     1     1     2 1   
     2     1    12 1   
     3     1    14 1   
     4     1    16 1   
     5     2    11 1   
     6     2    19 1   
     7     2    23 1   
     8     3     7 1   
     9     3    10 1   
    10     4    16 2   
    11     4    18 1   
    12     4    24 1   
    13     5     7 ar  
    14     5    14 ar  
    15     5    25 1   
    16     6     8 ar  
    17     6    17 ar  
    18     6    26 1   
    19     7     8 ar  
    20     8    21 1   
    21     9    20 1   
    22     9    27 1   
    23     9    28 1   
    24     9    29 1   
    25    10    21 1   
    26    10    30 1   
    27    10    31 1   
    28    11    18 1   
    29    11    32 1   
    30    11    33 1   
    31    12    13 1   
    32    12    22 1   
    33    12    34 1   
    34    13    19 1   
    35    13    35 1   
    36    13    36 1   
    37    14    17 ar  
    38    15    17 1   
    39    15    19 1   
    40    15    37 1   
    41    15    38 1   
    42    16    39 1   
    43    18    20 1   
    44    18    40 1   
    45    22    41 1   
@<TRIPOS>SUBSTRUCTURE
     1 HN8         1 TEMP              0 ****  ****    0 ROOT
