@<TRIPOS>MOLECULE
HN8
   41    45     1     0     0
SMALL
bcc


@<TRIPOS>ATOM
      1 C1          -0.8250    -0.2760     0.6320 c5         1 HN8       0.003500
      2 C2          -1.5900    -0.7030    -0.6330 c5         1 HN8       0.163500
      3 O2           3.7330     1.8030     0.8230 os         1 HN8      -0.320900
      4 C10         -2.6380     1.3880     0.9700 c2         1 HN8      -0.196200
      5 C11          1.4540     0.8760     0.8300 ca         1 HN8      -0.100000
      6 C12          2.4790    -0.8320    -1.1730 ca         1 HN8      -0.112000
      7 C13          2.7580     0.9490     0.4160 ca         1 HN8       0.048100
      8 C14          3.2630     0.1130    -0.5650 ca         1 HN8       0.055100
      9 C15         -3.9190     2.8660    -1.2180 c3         1 HN8       0.124700
     10 C16          4.9360     1.3220     0.2400 c5         1 HN8       0.326200
     11 C17         -3.0940    -0.6250    -0.4390 c6         1 HN8      -0.057400
     12 C3          -0.8630    -1.5630     1.5070 c5         1 HN8       0.123100
     13 C4          -1.0650    -2.6770     0.4430 c5         1 HN8       0.103800
     14 C5           0.6280    -0.0830     0.2190 ca         1 HN8      -0.066300
     15 C6           0.2450    -1.9400    -1.4510 c6         1 HN8       0.195100
     16 C7          -1.4470     0.9040     1.3060 c2         1 HN8      -0.104200
     17 C8           1.1410    -0.9290    -0.7640 ca         1 HN8      -0.111300
     18 C9          -3.5030     0.8050    -0.1200 c6         1 HN8       0.181300
     19 N1          -1.0860    -2.0490    -0.8770 n3         1 HN8      -0.664600
     20 O1          -3.4240     1.5550    -1.3220 os         1 HN8      -0.409600
     21 O3           4.5650     0.4190    -0.7920 os         1 HN8      -0.319900
     22 O4          -1.9060    -1.4930     2.4480 oh         1 HN8      -0.585800
     23 H1          -1.3240    -0.0610    -1.4780 h1         1 HN8       0.087700
     24 H2          -3.0280     2.2430     1.5130 ha         1 HN8       0.123000
     25 H3           1.0830     1.5410     1.5970 ha         1 HN8       0.154000
     26 H4           2.8740    -1.4820    -1.9450 ha         1 HN8       0.151000
     27 H5          -3.9350     3.2950    -2.2200 h1         1 HN8       0.026700
     28 H6          -4.9400     2.8870    -0.8190 h1         1 HN8       0.026700
     29 H7          -3.2960     3.5080    -0.5850 h1         1 HN8       0.026700
     30 H8           5.5010     2.1530    -0.1810 h2         1 HN8       0.064200
     31 H9           5.5320     0.7980     0.9970 h2         1 HN8       0.064200
     32 H10         -3.6110    -0.9680    -1.3390 hc         1 HN8       0.064700
     33 H11         -3.4200    -1.2660     0.3810 hc         1 HN8       0.064700
     34 H12          0.0960    -1.6870     2.0240 h1         1 HN8       0.044700
     35 H13         -0.2930    -3.4470     0.4850 h1         1 HN8       0.059200
     36 H14         -2.0220    -3.1720     0.6320 h1         1 HN8       0.059200
     37 H15          0.1450    -1.6600    -2.5050 h1         1 HN8       0.066200
     38 H16          0.7160    -2.9270    -1.4460 h1         1 HN8       0.066200
     39 H17         -0.9130     1.3610     2.1330 ha         1 HN8       0.125000
     40 H18         -4.5460     0.8100     0.2320 h1         1 HN8       0.040700
     41 H20         -1.8790    -2.2960     2.9790 ho         1 HN8       0.404000
@<TRIPOS>BOND
     1     1     2 1   
     2     1    12 1   
     3     1    14 1   
     4     1    16 1   
     5     2    11 1   
     6     2    19 1   
     7     2    23 1   
     8     3     7 1   
     9     3    10 1   
    10     4    16 2   
    11     4    18 1   
    12     4    24 1   
    13     5     7 ar  
    14     5    14 ar  
    15     5    25 1   
    16     6     8 ar  
    17     6    17 ar  
    18     6    26 1   
    19     7     8 ar  
    20     8    21 1   
    21     9    20 1   
    22     9    27 1   
    23     9    28 1   
    24     9    29 1   
    25    10    21 1   
    26    10    30 1   
    27    10    31 1   
    28    11    18 1   
    29    11    32 1   
    30    11    33 1   
    31    12    13 1   
    32    12    22 1   
    33    12    34 1   
    34    13    19 1   
    35    13    35 1   
    36    13    36 1   
    37    14    17 ar  
    38    15    17 1   
    39    15    19 1   
    40    15    37 1   
    41    15    38 1   
    42    16    39 1   
    43    18    20 1   
    44    18    40 1   
    45    22    41 1   
@<TRIPOS>SUBSTRUCTURE
     1 HN8         1 TEMP              0 ****  ****    0 ROOT
