@<TRIPOS>MOLECULE
HN9
   25    26     1     0     0
SMALL
No Charge or Current Charge


@<TRIPOS>ATOM
      1 C11         32.1140    22.8800    -8.2820 ca         1 HN9      -0.177500
      2 C12         31.9180    21.9000    -9.2710 ca         1 HN9      -0.056500
      3 O13         33.0920    23.5530    -6.2070 oh         1 HN9      -0.549100
      4 O16         29.4140    19.4680    -9.3450 o          1 HN9      -0.698000
      5 N01         31.2400    16.3750    -8.8040 nc         1 HN9      -0.678000
      6 C02         30.9650    17.6430    -9.1600 cd         1 HN9       0.369000
      7 N03         32.1230    18.2020    -9.7250 na         1 HN9      -0.155500
      8 C04         33.1110    17.2300    -9.7100 cd         1 HN9      -0.300000
      9 C05         32.5360    16.1340    -9.1400 cc         1 HN9       0.205900
     10 C06         32.3000    19.5770   -10.2310 c3         1 HN9       0.141900
     11 C07         32.5130    20.6290    -9.1420 ca         1 HN9      -0.087300
     12 C08         33.3150    20.3560    -8.0130 ca         1 HN9      -0.056500
     13 C09         33.5080    21.3380    -7.0250 ca         1 HN9      -0.177500
     14 C10         32.9070    22.5990    -7.1600 ca         1 HN9       0.116100
     15 O15         28.6790    17.6790    -8.4420 o          1 HN9      -0.698000
     16 H1          31.6490    23.8570    -8.3880 ha         1 HN9       0.107000
     17 H2          31.3000    22.1290   -10.1370 ha         1 HN9       0.119500
     18 H3          33.6680    23.1820    -5.5040 ho         1 HN9       0.454000
     19 H4          34.1150    17.3850   -10.0870 h4         1 HN9       0.125000
     20 H5          32.9810    15.1670    -8.9450 h4         1 HN9       0.006100
     21 H6          33.1740    19.5870   -10.8950 h1         1 HN9       0.063700
     22 H7          31.4330    19.8420   -10.8480 h1         1 HN9       0.063700
     23 H8          33.7930    19.3860    -7.8990 ha         1 HN9       0.119500
     24 H9          34.1280    21.1130    -6.1600 ha         1 HN9       0.107000
     25 C14         29.5920    18.3150    -8.9660 c          1 HN9       0.634500
@<TRIPOS>BOND
     1     1     2 ar  
     2     1    14 ar  
     3     1    16 1   
     4     2    11 ar  
     5     2    17 1   
     6     3    14 1   
     7     3    18 1   
     8     4    25 1   
     9     5     6 2   
    10     5     9 1   
    11     6     7 1   
    12     6    25 1   
    13     7     8 1   
    14     7    10 1   
    15     8     9 2   
    16     8    19 1   
    17     9    20 1   
    18    10    11 1   
    19    10    21 1   
    20    10    22 1   
    21    11    12 ar  
    22    12    13 ar  
    23    12    23 1   
    24    13    14 ar  
    25    13    24 1   
    26    15    25 1   
@<TRIPOS>SUBSTRUCTURE
     1 HN9         1 TEMP              0 ****  ****    0 ROOT
