@<TRIPOS>MOLECULE
HN9
   25    26     1     0     0
SMALL
bcc


@<TRIPOS>ATOM
      1 C11         32.5200    22.9530    -8.4760 ca         1 HN9      -0.195500
      2 C12         32.2110    21.9750    -9.4060 ca         1 HN9      -0.074500
      3 O13         33.2900    23.5760    -6.3460 oh         1 HN9      -0.510100
      4 O16         29.4830    19.3120    -8.9870 o          1 HN9      -0.803300
      5 N01         31.4540    16.3410    -8.7860 nc         1 HN9      -0.678000
      6 C02         31.0510    17.5580    -9.0820 cd         1 HN9       0.369000
      7 N03         32.0400    18.2420    -9.7270 na         1 HN9      -0.176900
      8 C04         33.1150    17.4070    -9.8230 cd         1 HN9      -0.332600
      9 C05         32.7320    16.2360    -9.2360 cc         1 HN9       0.271200
     10 C06         32.0580    19.6100   -10.1970 c3         1 HN9       0.112600
     11 C07         32.3770    20.6210    -9.1250 ca         1 HN9      -0.087300
     12 C08         32.8620    20.2730    -7.8720 ca         1 HN9      -0.074500
     13 C09         33.1740    21.2410    -6.9260 ca         1 HN9      -0.195500
     14 C10         33.0060    22.5890    -7.2210 ca         1 HN9       0.116100
     15 O15         28.8750    17.2800    -8.2830 o          1 HN9      -0.803300
     16 H1          32.3820    23.9990    -8.7170 ha         1 HN9       0.125000
     17 H2          31.8300    22.2780   -10.3750 ha         1 HN9       0.137500
     18 H3          33.6210    23.2070    -5.5190 ho         1 HN9       0.415000
     19 H4          34.0330    17.7130   -10.2990 h4         1 HN9       0.143000
     20 H5          33.3100    15.3320    -9.1220 h4         1 HN9       0.006100
     21 H6          32.8140    19.6620   -10.9830 h1         1 HN9       0.063700
     22 H7          31.1030    19.8440   -10.6580 h1         1 HN9       0.063700
     23 H8          33.0040    19.2320    -7.6080 ha         1 HN9       0.137500
     24 H9          33.5490    20.9380    -5.9550 ha         1 HN9       0.125000
     25 C14         29.6750    18.1030    -8.7550 c          1 HN9       0.845100
@<TRIPOS>BOND
     1     1     2 ar  
     2     1    14 ar  
     3     1    16 1   
     4     2    11 ar  
     5     2    17 1   
     6     3    14 1   
     7     3    18 1   
     8     4    25 1   
     9     5     6 2   
    10     5     9 1   
    11     6     7 1   
    12     6    25 1   
    13     7     8 1   
    14     7    10 1   
    15     8     9 2   
    16     8    19 1   
    17     9    20 1   
    18    10    11 1   
    19    10    21 1   
    20    10    22 1   
    21    11    12 ar  
    22    12    13 ar  
    23    12    23 1   
    24    13    14 ar  
    25    13    24 1   
    26    15    25 1   
@<TRIPOS>SUBSTRUCTURE
     1 HN9         1 TEMP              0 ****  ****    0 ROOT
