@<TRIPOS>MOLECULE
HNA
   28    30     1     0     0
SMALL
bcc


@<TRIPOS>ATOM
      1 C1          -0.9870     2.4390     0.1600 ca         1 HNA       0.246100
      2 C2          -0.2870     1.2160     0.1420 ca         1 HNA      -0.262600
      3 C3          -0.9920     0.0010     0.1210 ca         1 HNA      -0.024600
      4 C4          -2.3720     0.0350     0.0950 ca         1 HNA      -0.172200
      5 C5          -3.0710     1.2360     0.1300 ca         1 HNA      -0.029000
      6 C6          -2.3870     2.4250     0.1610 ca         1 HNA      -0.170000
      7 C13         -0.2590    -1.2890     0.2100 c          1 HNA       0.579300
      8 C14          1.2120    -1.2630     0.0680 ca         1 HNA      -0.079600
      9 C15          1.9020    -0.0360     0.0380 ca         1 HNA      -0.265600
     10 C16          1.1770     1.2200     0.1120 c          1 HNA       0.637300
     11 C22          3.3060    -0.0390    -0.0660 ca         1 HNA       0.229100
     12 C23          3.9820    -1.2630    -0.1540 ca         1 HNA      -0.167000
     13 C24          3.2830    -2.4470    -0.1290 ca         1 HNA      -0.060000
     14 C25          1.8930    -2.4600    -0.0090 ca         1 HNA      -0.120000
     15 O16          1.7870     2.3000     0.1270 o          1 HNA      -0.619100
     16 O13         -0.8590    -2.3210     0.4170 o          1 HNA      -0.475100
     17 O1          -0.3920     3.6160     0.1810 oh         1 HNA      -0.484100
     18 O22          4.0370     1.0660    -0.0880 oh         1 HNA      -0.490100
     19 N4          -3.1840    -1.1750    -0.0050 no         1 HNA       0.326200
     20 O4B         -3.2110    -1.7350    -1.0710 o          1 HNA      -0.184500
     21 O4A         -3.8270    -1.4830     0.9660 o          1 HNA      -0.184500
     22 HC5         -4.1530     1.2410     0.1180 ha         1 HNA       0.166000
     23 HC6         -2.9260     3.3620     0.1810 ha         1 HNA       0.168000
     24 HC23         5.0610    -1.2600    -0.2410 ha         1 HNA       0.159000
     25 HC24         3.8210    -3.3830    -0.2010 ha         1 HNA       0.147000
     26 HC25         1.3580    -3.3980     0.0160 ha         1 HNA       0.165000
     27 HO1          0.5810     3.4750     0.1730 ho         1 HNA       0.486000
     28 HO22         3.4430     1.8410    -0.0120 ho         1 HNA       0.477000
@<TRIPOS>BOND
     1     1     2 ar  
     2     1     6 ar  
     3     1    17 1   
     4     2     3 ar  
     5     2    10 1   
     6     3     4 ar  
     7     3     7 1   
     8     4     5 ar  
     9     4    19 1   
    10     5     6 ar  
    11     5    22 1   
    12     6    23 1   
    13     7     8 1   
    14     7    16 2   
    15     8     9 ar  
    16     8    14 ar  
    17     9    10 1   
    18     9    11 ar  
    19    10    15 2   
    20    11    12 ar  
    21    11    18 1   
    22    12    13 ar  
    23    12    24 1   
    24    13    14 ar  
    25    13    25 1   
    26    14    26 1   
    27    17    27 1   
    28    18    28 1   
    29    19    20 1   
    30    19    21 1   
@<TRIPOS>SUBSTRUCTURE
     1 HNA         1 TEMP              0 ****  ****    0 ROOT
