@<TRIPOS>MOLECULE
HNA
   28    30     1     0     0
SMALL
No Charge or Current Charge


@<TRIPOS>ATOM
      1 C1          -1.0280     2.4570     0.1590 ca         1 HNA       0.246100
      2 C2          -0.3070     1.2370     0.1570 ca         1 HNA      -0.262600
      3 C3          -1.0190    -0.0000     0.1580 ca         1 HNA      -0.024600
      4 C4          -2.4480     0.0360     0.1160 ca         1 HNA      -0.172200
      5 C5          -3.1350     1.2640     0.1220 ca         1 HNA      -0.011000
      6 C6          -2.4240     2.4650     0.1500 ca         1 HNA      -0.152000
      7 C13         -0.2510    -1.3180     0.2390 c          1 HNA       0.579300
      8 C14          1.2530    -1.2760     0.0770 ca         1 HNA      -0.079600
      9 C15          1.9570    -0.0450     0.0400 ca         1 HNA      -0.265600
     10 C16          1.2020     1.2530     0.1440 c          1 HNA       0.637300
     11 C22          3.3670    -0.0600    -0.0900 ca         1 HNA       0.229100
     12 C23          4.0630    -1.2720    -0.1880 ca         1 HNA      -0.149000
     13 C24          3.3700    -2.4880    -0.1540 ca         1 HNA      -0.042000
     14 C25          1.9750    -2.4890    -0.0190 ca         1 HNA      -0.102000
     15 O16          1.8150     2.3180     0.2060 o          1 HNA      -0.619100
     16 O13         -0.8060    -2.3840     0.4810 o          1 HNA      -0.475100
     17 O1          -0.3890     3.6600     0.1710 oh         1 HNA      -0.523100
     18 O22          4.0850     1.0960    -0.1220 oh         1 HNA      -0.529100
     19 N4          -3.2790    -1.1960     0.0240 no         1 HNA       0.706200
     20 O4B         -3.2530    -1.8110    -1.0500 o          1 HNA      -0.374500
     21 O4A         -4.1460    -1.3600     0.8910 o          1 HNA      -0.374500
     22 HC5         -4.2240     1.2880     0.0920 ha         1 HNA       0.148000
     23 HC6         -2.9580     3.4110     0.1520 ha         1 HNA       0.150000
     24 HC23         5.1450    -1.2670    -0.2890 ha         1 HNA       0.141000
     25 HC24         3.9120    -3.4290    -0.2290 ha         1 HNA       0.129000
     26 HC25         1.4540    -3.4450     0.0090 ha         1 HNA       0.147000
     27 HO1          0.5810     3.4500     0.1940 ho         1 HNA       0.525000
     28 HO22         3.4250     1.8270    -0.0030 ho         1 HNA       0.516000
@<TRIPOS>BOND
     1     1     2 ar  
     2     1     6 ar  
     3     1    17 1   
     4     2     3 ar  
     5     2    10 1   
     6     3     4 ar  
     7     3     7 1   
     8     4     5 ar  
     9     4    19 1   
    10     5     6 ar  
    11     5    22 1   
    12     6    23 1   
    13     7     8 1   
    14     7    16 2   
    15     8     9 ar  
    16     8    14 ar  
    17     9    10 1   
    18     9    11 ar  
    19    10    15 2   
    20    11    12 ar  
    21    11    18 1   
    22    12    13 ar  
    23    12    24 1   
    24    13    14 ar  
    25    13    25 1   
    26    14    26 1   
    27    17    27 1   
    28    18    28 1   
    29    19    20 1   
    30    19    21 1   
@<TRIPOS>SUBSTRUCTURE
     1 HNA         1 TEMP              0 ****  ****    0 ROOT
