@<TRIPOS>MOLECULE
HNB
   29    29     1     0     0
SMALL
abcg2


@<TRIPOS>ATOM
      1 C1          -2.7900     0.6480    -0.4640 c5         1 HNB       0.381300
      2 C2          -3.3160    -0.6940     0.0480 c5         1 HNB      -0.106400
      3 C3          -2.0710    -1.5680     0.1170 c5         1 HNB      -0.111400
      4 C4          -0.9890    -0.5410     0.4220 c5         1 HNB       0.172300
      5 C5           0.4140    -0.9500     0.0260 c3         1 HNB      -0.070400
      6 C6           1.4760     0.1030     0.3220 c3         1 HNB      -0.071400
      7 C7           2.8780    -0.3420    -0.0750 c3         1 HNB      -0.076400
      8 C8           3.9420     0.7140     0.2000 c3         1 HNB      -0.074400
      9 C9           5.3400     0.2680    -0.2060 c3         1 HNB      -0.088100
     10 O4          -1.3870     0.6030    -0.3300 os         1 HNB      -0.490000
     11 O1          -3.3550     1.6820     0.2830 oh         1 HNB      -0.669000
     12 H3          -2.1350    -2.3470     0.8770 hc         1 HNB       0.055700
     13 H4          -1.0040    -0.3050     1.4970 h1         1 HNB       0.045700
     14 H1          -3.0020     0.7950    -1.5300 h2         1 HNB       0.045700
     15 HO1         -3.1900     2.5180    -0.1650 ho         1 HNB       0.453000
     16 H12         -3.7420    -0.5570     1.0450 hc         1 HNB       0.064700
     17 H22         -4.0990    -1.0990    -0.5930 hc         1 HNB       0.064700
     18 H15          0.6600    -1.8710     0.5630 hc         1 HNB       0.043700
     19 H25          0.4250    -1.2040    -1.0400 hc         1 HNB       0.043700
     20 H16          1.2300     1.0320    -0.2030 hc         1 HNB       0.045700
     21 H26          1.4600     0.3430     1.3910 hc         1 HNB       0.045700
     22 H17          3.1360    -1.2640     0.4580 hc         1 HNB       0.035200
     23 H27          2.8900    -0.5970    -1.1410 hc         1 HNB       0.035200
     24 H18          3.6790     1.6350    -0.3310 hc         1 HNB       0.037700
     25 H28          3.9340     0.9660     1.2640 hc         1 HNB       0.037700
     26 H19          6.0830     1.0390    -0.0010 hc         1 HNB       0.031033
     27 H29          5.6400    -0.6300     0.3370 hc         1 HNB       0.031033
     28 H39          5.3880     0.0380    -1.2730 hc         1 HNB       0.031033
     29 H3A         -1.8710    -2.0490    -0.8450 hc         1 HNB       0.055700
@<TRIPOS>BOND
     1     1     2 1   
     2     1    10 1   
     3     1    11 1   
     4     1    14 1   
     5     2     3 1   
     6     2    16 1   
     7     2    17 1   
     8     3     4 1   
     9     3    12 1   
    10     3    29 1   
    11     4     5 1   
    12     4    10 1   
    13     4    13 1   
    14     5     6 1   
    15     5    18 1   
    16     5    19 1   
    17     6     7 1   
    18     6    20 1   
    19     6    21 1   
    20     7     8 1   
    21     7    22 1   
    22     7    23 1   
    23     8     9 1   
    24     8    24 1   
    25     8    25 1   
    26     9    26 1   
    27     9    27 1   
    28     9    28 1   
    29    11    15 1   
@<TRIPOS>SUBSTRUCTURE
     1 HNB         1 TEMP              0 ****  ****    0 ROOT
