@<TRIPOS>MOLECULE
HNB
   29    29     1     0     0
SMALL
No Charge or Current Charge


@<TRIPOS>ATOM
      1 C1          -2.8930     0.6530    -0.4450 c5         1 HNB       0.381300
      2 C2          -3.4190    -0.7420     0.0200 c5         1 HNB      -0.106400
      3 C3          -2.1300    -1.6150     0.0890 c5         1 HNB      -0.111400
      4 C4          -1.0540    -0.5270     0.3020 c5         1 HNB       0.172300
      5 C5           0.3960    -0.9690    -0.0000 c3         1 HNB      -0.070400
      6 C6           1.4530     0.1380     0.2170 c3         1 HNB      -0.071400
      7 C7           2.8950    -0.3370    -0.0670 c3         1 HNB      -0.076400
      8 C8           3.9510     0.7690     0.1500 c3         1 HNB      -0.074400
      9 C9           5.3890     0.2950    -0.1340 c3         1 HNB      -0.088100
     10 O4          -1.4850     0.4770    -0.6320 os         1 HNB      -0.490000
     11 O1          -3.0820     1.6410     0.5470 oh         1 HNB      -0.669000
     12 H3          -2.1560    -2.3480     0.9030 hc         1 HNB       0.055700
     13 H4          -1.1030    -0.1180     1.3210 h1         1 HNB       0.045700
     14 H1          -3.3600     0.9680    -1.3880 h2         1 HNB       0.045700
     15 HO1         -2.4250     2.3340     0.3250 ho         1 HNB       0.453000
     16 H12         -3.9120    -0.6790     0.9970 hc         1 HNB       0.064700
     17 H22         -4.1530    -1.1530    -0.6810 hc         1 HNB       0.064700
     18 H15          0.6480    -1.8230     0.6390 hc         1 HNB       0.043700
     19 H25          0.4630    -1.3280    -1.0350 hc         1 HNB       0.043700
     20 H16          1.2220     0.9920    -0.4320 hc         1 HNB       0.045700
     21 H26          1.3890     0.4980     1.2520 hc         1 HNB       0.045700
     22 H17          3.1290    -1.1900     0.5830 hc         1 HNB       0.035200
     23 H27          2.9590    -0.6960    -1.1020 hc         1 HNB       0.035200
     24 H18          3.7220     1.6230    -0.5000 hc         1 HNB       0.037700
     25 H28          3.8920     1.1300     1.1850 hc         1 HNB       0.037700
     26 H19          6.1010     1.1130     0.0340 hc         1 HNB       0.031033
     27 H29          5.6610    -0.5370     0.5270 hc         1 HNB       0.031033
     28 H39          5.4900    -0.0390    -1.1730 hc         1 HNB       0.031033
     29 H3A         -1.9650    -2.1610    -0.8470 hc         1 HNB       0.055700
@<TRIPOS>BOND
     1     1     2 1   
     2     1    10 1   
     3     1    11 1   
     4     1    14 1   
     5     2     3 1   
     6     2    16 1   
     7     2    17 1   
     8     3     4 1   
     9     3    12 1   
    10     3    29 1   
    11     4     5 1   
    12     4    10 1   
    13     4    13 1   
    14     5     6 1   
    15     5    18 1   
    16     5    19 1   
    17     6     7 1   
    18     6    20 1   
    19     6    21 1   
    20     7     8 1   
    21     7    22 1   
    22     7    23 1   
    23     8     9 1   
    24     8    24 1   
    25     8    25 1   
    26     9    26 1   
    27     9    27 1   
    28     9    28 1   
    29    11    15 1   
@<TRIPOS>SUBSTRUCTURE
     1 HNB         1 TEMP              0 ****  ****    0 ROOT
