@<TRIPOS>MOLECULE
HNC
   40    39     1     0     0
SMALL
bcc


@<TRIPOS>ATOM
      1 C            1.6780    -0.3870   -11.4990 c          1 HNC       0.932600
      2 N            0.6500    -1.4160   -13.5140 n8         1 HNC      -0.890800
      3 O            0.9390     0.5830   -11.7570 o          1 HNC      -0.828300
      4 CA           1.4510    -1.6830   -12.3310 c3         1 HNC       0.025500
      5 CB           2.7900    -2.2960   -12.7220 c3         1 HNC       0.080700
      6 SG           2.5370    -3.8940   -13.5530 ss         1 HNC      -0.399200
      7 CAA         10.0060    -2.5720   -16.9020 c3         1 HNC      -0.089100
      8 OAC          3.6190    -5.7440   -16.2340 o          1 HNC      -0.516100
      9 OAE          4.7250    -3.2490   -15.5920 oh         1 HNC      -0.587800
     10 CAH         10.1640    -3.1450   -15.4990 c3         1 HNC      -0.071400
     11 CAI          9.0340    -4.0840   -15.0830 c3         1 HNC      -0.073400
     12 CAK          4.1600    -6.0400   -13.8970 c3         1 HNC      -0.181400
     13 CAL          6.5870    -4.3570   -14.4780 c3         1 HNC      -0.104400
     14 CAP          5.2200    -3.6840   -14.3530 c3         1 HNC       0.157100
     15 CAQ          4.2360    -4.5550   -13.5470 c3         1 HNC       0.008400
     16 OXT          2.5590    -0.4460   -10.6210 o          1 HNC      -0.828300
     17 HN           0.0810    -2.2190   -13.7490 hn         1 HNC       0.334800
     18 HNA          0.0170    -0.6590   -13.2930 hn         1 HNC       0.334800
     19 HA           0.9540    -2.3900   -11.6450 h1         1 HNC       0.008700
     20 HB           3.3210    -1.6160   -13.3920 h1         1 HNC       0.068700
     21 HBA          3.4010    -2.4650   -11.8360 h1         1 HNC       0.068700
     22 HAA         10.8690    -1.9650   -17.1800 hc         1 HNC       0.030700
     23 HAAA         9.9120    -3.3690   -17.6430 hc         1 HNC       0.030700
     24 HAAB         9.1230    -1.9390   -16.9880 hc         1 HNC       0.030700
     25 HOAE         4.3090    -4.0090   -16.0260 ho         1 HNC       0.427000
     26 HAF          3.5110    -7.5340   -15.3490 h4         1 HNC      -0.027800
     27 HAH         11.1120    -3.6870   -15.4410 hc         1 HNC       0.032200
     28 HAHA        10.2380    -2.3280   -14.7760 hc         1 HNC       0.032200
     29 HAI          8.9710    -4.9130   -15.7960 hc         1 HNC       0.029200
     30 HAIA         9.2870    -4.5350   -14.1180 hc         1 HNC       0.029200
     31 HAJ          7.7470    -2.5580   -14.2830 hc         1 HNC       0.050700
     32 HAJA         7.3770    -2.9950   -15.9380 hc         1 HNC       0.050700
     33 HAK          3.5010    -6.5510   -13.1870 hc         1 HNC       0.063200
     34 HAKA         5.1340    -6.5210   -13.7390 hc         1 HNC       0.063200
     35 HAL          6.5230    -5.2180   -15.1530 hc         1 HNC       0.029200
     36 HALA         6.8770    -4.7580   -13.4990 hc         1 HNC       0.029200
     37 HAP          5.3650    -2.7740   -13.7600 h1         1 HNC       0.075700
     38 HAQ          4.5820    -4.5190   -12.5090 h1         1 HNC       0.064700
     39 CAF          3.7260    -6.4560   -15.2630 c          1 HNC       0.583900
     40 CAJ          7.6730    -3.4080   -14.9710 c3         1 HNC      -0.073400
@<TRIPOS>BOND
     1     1     3 1   
     2     1     4 1   
     3     1    16 1   
     4     2     4 1   
     5     2    17 1   
     6     2    18 1   
     7     4     5 1   
     8     4    19 1   
     9     5     6 1   
    10     5    20 1   
    11     5    21 1   
    12     6    15 1   
    13     7    10 1   
    14     7    22 1   
    15     7    23 1   
    16     7    24 1   
    17     8    39 2   
    18     9    14 1   
    19     9    25 1   
    20    10    11 1   
    21    10    27 1   
    22    10    28 1   
    23    11    29 1   
    24    11    30 1   
    25    11    40 1   
    26    12    15 1   
    27    12    33 1   
    28    12    34 1   
    29    12    39 1   
    30    13    14 1   
    31    13    35 1   
    32    13    36 1   
    33    13    40 1   
    34    14    15 1   
    35    14    37 1   
    36    15    38 1   
    37    26    39 1   
    38    31    40 1   
    39    32    40 1   
@<TRIPOS>SUBSTRUCTURE
     1 HNC         1 TEMP              0 ****  ****    0 ROOT
