@<TRIPOS>MOLECULE
HNC
   40    39     1     0     0
SMALL
No Charge or Current Charge


@<TRIPOS>ATOM
      1 C            1.5810    -0.5080   -11.1140 c          1 HNC       0.722000
      2 N            0.7820    -1.1040   -13.5550 n8         1 HNC      -1.001200
      3 O            0.6000    -0.2240   -10.4380 o          1 HNC      -0.723000
      4 CA           1.4040    -1.5870   -12.2620 c3         1 HNC       0.025500
      5 CB           2.7350    -2.3450   -12.5250 c3         1 HNC       0.128600
      6 SG           2.4790    -3.8010   -13.6610 ss         1 HNC      -0.495000
      7 CAA         10.1650    -2.7550   -17.0420 c3         1 HNC      -0.089100
      8 OAC          4.0320    -6.3220   -16.3310 o          1 HNC      -0.516100
      9 OAE          4.7850    -3.6990   -15.8900 oh         1 HNC      -0.650000
     10 CAH         10.2350    -2.9640   -15.5150 c3         1 HNC      -0.071400
     11 CAI          9.1430    -3.9010   -14.9460 c3         1 HNC      -0.073400
     12 CAK          4.0520    -6.0760   -13.9230 c3         1 HNC      -0.181400
     13 CAL          6.6460    -4.2850   -14.4300 c3         1 HNC      -0.104400
     14 CAP          5.1940    -3.7460   -14.5140 c3         1 HNC       0.180300
     15 CAQ          4.1770    -4.5550   -13.6300 c3         1 HNC       0.056300
     16 OXT          2.6840    -0.0090   -10.9270 o          1 HNC      -0.723000
     17 HN           0.7410    -1.9030   -14.2000 hn         1 HNC       0.390000
     18 HNA         -0.2030    -0.8660   -13.3860 hn         1 HNC       0.390000
     19 HA           0.7050    -2.3340   -11.8610 h1         1 HNC       0.008700
     20 HB           3.4700    -1.6610   -12.9680 h1         1 HNC       0.068700
     21 HBA          3.1370    -2.7090   -11.5700 h1         1 HNC       0.068700
     22 HAA         11.0170    -2.1530   -17.3810 hc         1 HNC       0.030700
     23 HAAA        10.1960    -3.7170   -17.5680 hc         1 HNC       0.030700
     24 HAAB         9.2470    -2.2300   -17.3280 hc         1 HNC       0.030700
     25 HOAE         4.6390    -4.6320   -16.1760 ho         1 HNC       0.466000
     26 HAF          2.3360    -6.6690   -15.2520 h4         1 HNC      -0.027800
     27 HAH         11.2170    -3.3840   -15.2670 hc         1 HNC       0.032200
     28 HAHA        10.1770    -1.9900   -15.0140 hc         1 HNC       0.032200
     29 HAI          9.2110    -4.8770   -15.4430 hc         1 HNC       0.029200
     30 HAIA         9.3570    -4.0750   -13.8850 hc         1 HNC       0.029200
     31 HAJ          7.6450    -2.3660   -14.6140 hc         1 HNC       0.050700
     32 HAJA         7.4590    -3.2270   -16.1420 hc         1 HNC       0.050700
     33 HAK          3.4080    -6.5040   -13.1450 hc         1 HNC       0.063200
     34 HAKA         5.0400    -6.5460   -13.8740 hc         1 HNC       0.063200
     35 HAL          6.7040    -5.2720   -14.9040 hc         1 HNC       0.029200
     36 HALA         6.9080    -4.4250   -13.3740 hc         1 HNC       0.029200
     37 HAP          5.2130    -2.7230   -14.1120 h1         1 HNC       0.075700
     38 HAQ          4.5350    -4.4730   -12.5950 h1         1 HNC       0.064700
     39 CAF          3.4110    -6.3820   -15.2750 c          1 HNC       0.583900
     40 CAJ          7.7010    -3.3570   -15.0800 c3         1 HNC      -0.073400
@<TRIPOS>BOND
     1     1     3 1   
     2     1     4 1   
     3     1    16 1   
     4     2     4 1   
     5     2    17 1   
     6     2    18 1   
     7     4     5 1   
     8     4    19 1   
     9     5     6 1   
    10     5    20 1   
    11     5    21 1   
    12     6    15 1   
    13     7    10 1   
    14     7    22 1   
    15     7    23 1   
    16     7    24 1   
    17     8    39 2   
    18     9    14 1   
    19     9    25 1   
    20    10    11 1   
    21    10    27 1   
    22    10    28 1   
    23    11    29 1   
    24    11    30 1   
    25    11    40 1   
    26    12    15 1   
    27    12    33 1   
    28    12    34 1   
    29    12    39 1   
    30    13    14 1   
    31    13    35 1   
    32    13    36 1   
    33    13    40 1   
    34    14    15 1   
    35    14    37 1   
    36    15    38 1   
    37    26    39 1   
    38    31    40 1   
    39    32    40 1   
@<TRIPOS>SUBSTRUCTURE
     1 HNC         1 TEMP              0 ****  ****    0 ROOT
