@<TRIPOS>MOLECULE
HND
   31    30     1     0     0
SMALL
No Charge or Current Charge


@<TRIPOS>ATOM
      1 C1          -4.3910    -0.6880     0.1740 c3         1 HND       0.163600
      2 C2          -3.1610     0.1350    -0.2590 c3         1 HND      -0.078400
      3 C3          -1.8280    -0.4500     0.2690 c3         1 HND      -0.107400
      4 C4          -0.5690     0.3270    -0.1890 c3         1 HND       0.166300
      5 C5           0.7410    -0.3650     0.2640 c3         1 HND      -0.106400
      6 C6           2.0300     0.3060    -0.2710 c3         1 HND      -0.071400
      7 C7           3.3160    -0.4360     0.1550 c3         1 HND      -0.076400
      8 C8           4.6040     0.2300    -0.3780 c3         1 HND      -0.075400
      9 C9           5.8870    -0.5100     0.0460 c3         1 HND      -0.088100
     10 O10         -0.6130     1.6550     0.3470 oh         1 HND      -0.653000
     11 O11         -5.5810    -0.0930    -0.3540 oh         1 HND      -0.660000
     12 H2          -3.1270     0.1780    -1.3550 hc         1 HND       0.059700
     13 H3          -1.8570    -0.4880     1.3660 hc         1 HND       0.040200
     14 H4          -0.5720     0.3640    -1.2880 h1         1 HND       0.072700
     15 H5           0.7780    -0.4000     1.3610 hc         1 HND       0.040200
     16 H5A          0.7240    -1.4060    -0.0810 hc         1 HND       0.040200
     17 HO10        -0.5680     1.5690     1.3230 ho         1 HND       0.436000
     18 H6           1.9850     0.3480    -1.3660 hc         1 HND       0.045200
     19 H6A          2.0810     1.3420     0.0870 hc         1 HND       0.045200
     20 H7           3.3610    -0.4790     1.2510 hc         1 HND       0.035200
     21 H7A          3.2710    -1.4710    -0.2050 hc         1 HND       0.035200
     22 H8           4.5630     0.2730    -1.4740 hc         1 HND       0.037700
     23 H8A          4.6540     1.2650    -0.0190 hc         1 HND       0.037700
     24 H9           5.9740    -0.5400     1.1390 hc         1 HND       0.031700
     25 H9A          5.8830    -1.5400    -0.3290 hc         1 HND       0.031700
     26 H9B          6.7710    -0.0020    -0.3550 hc         1 HND       0.031700
     27 H1          -4.2870    -1.7170    -0.1930 h1         1 HND       0.013200
     28 HO11        -6.3340    -0.6490    -0.0530 ho         1 HND       0.442000
     29 H2A         -3.2800     1.1650     0.1000 hc         1 HND       0.059700
     30 H1A         -4.4380    -0.7210     1.2710 h1         1 HND       0.013200
     31 H3A         -1.7440    -1.4880    -0.0770 hc         1 HND       0.040200
@<TRIPOS>BOND
     1     1     2 1   
     2     1    11 1   
     3     1    27 1   
     4     1    30 1   
     5     2     3 1   
     6     2    12 1   
     7     2    29 1   
     8     3     4 1   
     9     3    13 1   
    10     3    31 1   
    11     4     5 1   
    12     4    10 1   
    13     4    14 1   
    14     5     6 1   
    15     5    15 1   
    16     5    16 1   
    17     6     7 1   
    18     6    18 1   
    19     6    19 1   
    20     7     8 1   
    21     7    20 1   
    22     7    21 1   
    23     8     9 1   
    24     8    22 1   
    25     8    23 1   
    26     9    24 1   
    27     9    25 1   
    28     9    26 1   
    29    10    17 1   
    30    11    28 1   
@<TRIPOS>SUBSTRUCTURE
     1 HND         1 TEMP              0 ****  ****    0 ROOT
