@<TRIPOS>MOLECULE
HND
   31    30     1     0     0
SMALL
abcg2


@<TRIPOS>ATOM
      1 C1          -4.2870    -0.7210     0.1260 c3         1 HND       0.163600
      2 C2          -3.0990     0.1510    -0.2280 c3         1 HND      -0.078400
      3 C3          -1.7920    -0.4350     0.2900 c3         1 HND      -0.107400
      4 C4          -0.5570     0.3630    -0.1180 c3         1 HND       0.166300
      5 C5           0.7300    -0.3340     0.3140 c3         1 HND      -0.106400
      6 C6           1.9950     0.3150    -0.2320 c3         1 HND      -0.071400
      7 C7           3.2660    -0.4160     0.1810 c3         1 HND      -0.076400
      8 C8           4.5290     0.1920    -0.4150 c3         1 HND      -0.075400
      9 C9           5.7970    -0.5410     0.0020 c3         1 HND      -0.088100
     10 O10         -0.6130     1.7000     0.3470 oh         1 HND      -0.653000
     11 O11         -5.4630    -0.1300    -0.3860 oh         1 HND      -0.660000
     12 H2          -3.0430     0.2570    -1.3160 hc         1 HND       0.059700
     13 H3          -1.8240    -0.5210     1.3830 hc         1 HND       0.040200
     14 H4          -0.5510     0.4420    -1.2120 h1         1 HND       0.072700
     15 H5           0.7710    -0.3740     1.4100 hc         1 HND       0.040200
     16 H5A          0.6860    -1.3760    -0.0200 hc         1 HND       0.040200
     17 HO10        -0.6240     1.6750     1.3100 ho         1 HND       0.436000
     18 H6           1.9370     0.3430    -1.3260 hc         1 HND       0.045200
     19 H6A          2.0530     1.3560     0.0960 hc         1 HND       0.045200
     20 H7           3.3460    -0.4200     1.2740 hc         1 HND       0.035200
     21 H7A          3.1940    -1.4680    -0.1180 hc         1 HND       0.035200
     22 H8           4.4480     0.1890    -1.5070 hc         1 HND       0.037700
     23 H8A          4.6000     1.2430    -0.1210 hc         1 HND       0.037700
     24 H9           5.9270    -0.5180     1.0850 hc         1 HND       0.031700
     25 H9A          5.7650    -1.5890    -0.3030 hc         1 HND       0.031700
     26 H9B          6.6840    -0.0930    -0.4470 hc         1 HND       0.031700
     27 H1          -4.1330    -1.7270    -0.2890 h1         1 HND       0.013200
     28 HO11        -6.2020    -0.7100    -0.1820 ho         1 HND       0.442000
     29 H2A         -3.2500     1.1540     0.1820 hc         1 HND       0.059700
     30 H1A         -4.3410    -0.8370     1.2170 h1         1 HND       0.013200
     31 H3A         -1.6760    -1.4560    -0.0880 hc         1 HND       0.040200
@<TRIPOS>BOND
     1     1     2 1   
     2     1    11 1   
     3     1    27 1   
     4     1    30 1   
     5     2     3 1   
     6     2    12 1   
     7     2    29 1   
     8     3     4 1   
     9     3    13 1   
    10     3    31 1   
    11     4     5 1   
    12     4    10 1   
    13     4    14 1   
    14     5     6 1   
    15     5    15 1   
    16     5    16 1   
    17     6     7 1   
    18     6    18 1   
    19     6    19 1   
    20     7     8 1   
    21     7    20 1   
    22     7    21 1   
    23     8     9 1   
    24     8    22 1   
    25     8    23 1   
    26     9    24 1   
    27     9    25 1   
    28     9    26 1   
    29    10    17 1   
    30    11    28 1   
@<TRIPOS>SUBSTRUCTURE
     1 HND         1 TEMP              0 ****  ****    0 ROOT
