@<TRIPOS>MOLECULE
HNE
   27    26     1     0     0
SMALL
No Charge or Current Charge


@<TRIPOS>ATOM
      1 C1           1.5690     2.3420    -0.6030 c          1 HNE       0.567100
      2 C2           2.0670     0.9560    -0.3840 ce         1 HNE      -0.317200
      3 C3           1.3060    -0.0520     0.1080 c2         1 HNE      -0.189200
      4 C4           1.7700    -1.4710     0.3470 c3         1 HNE       0.199500
      5 C5           1.2720    -2.0530     1.6900 c3         1 HNE      -0.074400
      6 C6           1.8070    -1.2980     2.9310 c3         1 HNE      -0.076400
      7 C7           1.3280    -1.9130     4.2650 c3         1 HNE      -0.074400
      8 C8           1.8610    -1.1590     5.5030 c3         1 HNE      -0.075400
      9 C9           1.3840    -1.7710     6.8340 c3         1 HNE      -0.088100
     10 O10          1.2870    -2.2780    -0.7230 oh         1 HNE      -0.654000
     11 O11          2.2750     3.2380    -1.0480 o          1 HNE      -0.511100
     12 H2           3.1120     0.7960    -0.6470 ha         1 HNE       0.197000
     13 H3           0.2590     0.1190     0.3690 ha         1 HNE       0.182000
     14 H4           2.8690    -1.4900     0.3550 h1         1 HNE       0.039700
     15 H5C1         1.5830    -3.1030     1.7550 hc         1 HNE       0.056700
     16 H5C2         0.1750    -2.0470     1.7060 hc         1 HNE       0.056700
     17 H10          1.5460    -1.8180    -1.5510 ho         1 HNE       0.447000
     18 H6C1         2.9040    -1.2990     2.9070 hc         1 HNE       0.039700
     19 H6C2         1.4870    -0.2500     2.8860 hc         1 HNE       0.039700
     20 H7C1         0.2310    -1.9130     4.2880 hc         1 HNE       0.039200
     21 H7C2         1.6500    -2.9600     4.3150 hc         1 HNE       0.039200
     22 H8C1         1.5400    -0.1110     5.4570 hc         1 HNE       0.037700
     23 H8C2         2.9580    -1.1580     5.4840 hc         1 HNE       0.037700
     24 H9C1         0.2890    -1.7540     6.8990 hc         1 HNE       0.032700
     25 H9C2         1.7210    -2.8110     6.9260 hc         1 HNE       0.032700
     26 H9C3         1.7870    -1.2040     7.6810 hc         1 HNE       0.032700
     27 H1           0.5040     2.5260    -0.3390 h4         1 HNE      -0.015800
@<TRIPOS>BOND
     1     1     2 1   
     2     1    11 2   
     3     1    27 1   
     4     2     3 2   
     5     2    12 1   
     6     3     4 1   
     7     3    13 1   
     8     4     5 1   
     9     4    10 1   
    10     4    14 1   
    11     5     6 1   
    12     5    15 1   
    13     5    16 1   
    14     6     7 1   
    15     6    18 1   
    16     6    19 1   
    17     7     8 1   
    18     7    20 1   
    19     7    21 1   
    20     8     9 1   
    21     8    22 1   
    22     8    23 1   
    23     9    24 1   
    24     9    25 1   
    25     9    26 1   
    26    10    17 1   
@<TRIPOS>SUBSTRUCTURE
     1 HNE         1 TEMP              0 ****  ****    0 ROOT
