@<TRIPOS>MOLECULE
HNE
   27    26     1     0     0
SMALL
bcc


@<TRIPOS>ATOM
      1 C1           1.5000     2.2570    -0.2470 c          1 HNE       0.567100
      2 C2           2.0760     0.9370    -0.0090 ce         1 HNE      -0.267200
      3 C3           1.2790    -0.1330     0.0510 c2         1 HNE      -0.139200
      4 C4           1.7390    -1.5350     0.3010 c3         1 HNE       0.176300
      5 C5           1.2300    -2.0360     1.6490 c3         1 HNE      -0.074400
      6 C6           1.8380    -1.2990     2.8350 c3         1 HNE      -0.076400
      7 C7           1.3350    -1.8270     4.1720 c3         1 HNE      -0.074400
      8 C8           1.9460    -1.1090     5.3680 c3         1 HNE      -0.075400
      9 C9           1.4280    -1.6320     6.7000 c3         1 HNE      -0.088100
     10 O10          1.2300    -2.3960    -0.6970 oh         1 HNE      -0.591800
     11 O11          2.1420     3.2800    -0.3310 o          1 HNE      -0.511100
     12 H2           3.1510     0.8540     0.1080 ha         1 HNE       0.147000
     13 H3           0.2060    -0.0020    -0.0800 ha         1 HNE       0.132000
     14 H4           2.8380    -1.5560     0.3120 h1         1 HNE       0.039700
     15 H5C1         1.4700    -3.1010     1.7240 hc         1 HNE       0.056700
     16 H5C2         0.1390    -1.9560     1.6780 hc         1 HNE       0.056700
     17 H10          1.6110    -2.1410    -1.5430 ho         1 HNE       0.408000
     18 H6C1         2.9290    -1.3840     2.7940 hc         1 HNE       0.039700
     19 H6C2         1.6170    -0.2290     2.7640 hc         1 HNE       0.039700
     20 H7C1         0.2440    -1.7320     4.2120 hc         1 HNE       0.039200
     21 H7C2         1.5470    -2.9000     4.2450 hc         1 HNE       0.039200
     22 H8C1         1.7410    -0.0370     5.2890 hc         1 HNE       0.037700
     23 H8C2         3.0350    -1.2120     5.3320 hc         1 HNE       0.037700
     24 H9C1         0.3460    -1.5090     6.7780 hc         1 HNE       0.032700
     25 H9C2         1.6450    -2.6960     6.8170 hc         1 HNE       0.032700
     26 H9C3         1.8810    -1.1080     7.5410 hc         1 HNE       0.032700
     27 H1           0.4000     2.2660    -0.3520 h4         1 HNE      -0.015800
@<TRIPOS>BOND
     1     1     2 1   
     2     1    11 2   
     3     1    27 1   
     4     2     3 2   
     5     2    12 1   
     6     3     4 1   
     7     3    13 1   
     8     4     5 1   
     9     4    10 1   
    10     4    14 1   
    11     5     6 1   
    12     5    15 1   
    13     5    16 1   
    14     6     7 1   
    15     6    18 1   
    16     6    19 1   
    17     7     8 1   
    18     7    20 1   
    19     7    21 1   
    20     8     9 1   
    21     8    22 1   
    22     8    23 1   
    23     9    24 1   
    24     9    25 1   
    25     9    26 1   
    26    10    17 1   
@<TRIPOS>SUBSTRUCTURE
     1 HNE         1 TEMP              0 ****  ****    0 ROOT
