@<TRIPOS>MOLECULE
HNF
   26    28     1     0     0
SMALL
bcc


@<TRIPOS>ATOM
      1 H15         -5.6470     1.1870     0.1440 ha         1 HNF       0.229000
      2 H1          -5.4630     0.2410     0.1190 oh         1 HNF      -0.242000
      3 H1          -4.1380     0.0190     0.0890 ca         1 HNF       0.115000
      4 H2          -3.7130    -1.3150     0.0500 ca         1 HNF      -0.171000
      5 H3          -2.3650    -1.6200     0.0180 ca         1 HNF      -0.049000
      6 H4          -1.4350    -0.5850     0.0250 cp         1 HNF      -0.106000
      7 H5          -1.8640     0.7460     0.0630 ca         1 HNF      -0.021000
      8 H6          -3.2090     1.0600     0.0950 ca         1 HNF      -0.218000
      9 H7           0.0170    -0.6020    -0.0020 cp         1 HNF       0.026000
     10 H8           0.4770     0.7240     0.0190 ca         1 HNF      -0.102000
     11 H9          -0.6840     1.6760     0.0600 c5         1 HNF      -0.088000
     12 H10          0.9170    -1.6610    -0.0420 ca         1 HNF      -0.127000
     13 H11          2.2740    -1.3900    -0.0600 ca         1 HNF      -0.058000
     14 H12          2.7110    -0.0690    -0.0380 ca         1 HNF      -0.143000
     15 H13          1.8230     1.0060     0.0010 ca         1 HNF      -0.046000
     16 H1           4.1330     0.2020    -0.0580 nh         1 HNF       0.570000
     17 H2           4.8980    -0.7360    -0.0860 o          1 HNF      -0.363000
     18 H3           4.4950     1.3580    -0.0440 o          1 HNF      -0.363000
     19 H25         -4.4540    -2.1050     0.0450 ha         1 HNF       0.152000
     20 H4          -2.0510    -2.6560    -0.0130 ha         1 HNF       0.140000
     21 H1          -3.5390     2.0930     0.1260 ha         1 HNF       0.138000
     22 H12         -0.6930     2.3450    -0.8030 ha         1 HNF       0.119000
     23 H22         -0.6610     2.3120     0.9490 ha         1 HNF       0.119000
     24 H3           0.5760    -2.6880    -0.0580 ha         1 HNF       0.148000
     25 HO3          2.9810    -2.2060    -0.0900 ha         1 HNF       0.168000
     26 H5           2.1760     2.0270     0.0180 ha         1 HNF       0.170000
@<TRIPOS>BOND
     1     1     2 1   
     2     2     3 1   
     3     3     4 ar  
     4     3     8 ar  
     5     4     5 ar  
     6     4    19 1   
     7     5     6 ar  
     8     5    20 1   
     9     6     7 ar  
    10     6     9 1   
    11     7     8 ar  
    12     7    11 1   
    13     8    21 1   
    14     9    10 ar  
    15     9    12 ar  
    16    10    11 1   
    17    10    15 ar  
    18    11    22 1   
    19    11    23 1   
    20    12    13 ar  
    21    12    24 1   
    22    13    14 ar  
    23    13    25 1   
    24    14    15 ar  
    25    14    16 1   
    26    15    26 1   
    27    16    17 1   
    28    16    18 1   
@<TRIPOS>SUBSTRUCTURE
     1 HNF         1 TEMP              0 ****  ****    0 ROOT
