@<TRIPOS>MOLECULE
HNF
   26    28     1     0     0
SMALL
No Charge or Current Charge


@<TRIPOS>ATOM
      1 H15         -5.6830     1.2080     0.1420 ho         1 HNF       0.469000
      2 O1          -5.5490     0.2370     0.1180 oh         1 HNF      -0.527100
      3 C1          -4.2100    -0.0090     0.0890 ca         1 HNF       0.160100
      4 C2          -3.7490    -1.3440     0.0510 ca         1 HNF      -0.153000
      5 C3          -2.3670    -1.6270     0.0190 ca         1 HNF      -0.031000
      6 C4          -1.4560    -0.5510     0.0260 cp         1 HNF      -0.106000
      7 C5          -1.9310     0.7620     0.0640 ca         1 HNF      -0.028300
      8 C6          -3.2980     1.0640     0.0960 ca         1 HNF      -0.200000
      9 C7           0.0080    -0.5620    -0.0000 cp         1 HNF       0.026000
     10 C8           0.5060     0.7400     0.0190 ca         1 HNF      -0.109300
     11 C9          -0.7040     1.6830     0.0620 c5         1 HNF       0.005200
     12 C10          0.8980    -1.6510    -0.0410 ca         1 HNF      -0.109000
     13 C11          2.2870    -1.4000    -0.0600 ca         1 HNF      -0.040000
     14 C12          2.7880    -0.0670    -0.0400 ca         1 HNF      -0.188200
     15 C13          1.8780     1.0220     0.0000 ca         1 HNF      -0.028000
     16 N1           4.2640     0.1870    -0.0610 no         1 HNF       0.695200
     17 O2           5.0260    -0.7880    -0.0970 o          1 HNF      -0.403000
     18 O3           4.6560     1.3620    -0.0430 o          1 HNF      -0.403000
     19 H25         -4.4660    -2.1610     0.0460 ha         1 HNF       0.134000
     20 H4          -2.0130    -2.6540    -0.0100 ha         1 HNF       0.122000
     21 H1          -3.6350     2.0970     0.1240 ha         1 HNF       0.120000
     22 H12         -0.7160     2.3580    -0.8020 hc         1 HNF       0.079700
     23 H22         -0.6840     2.3190     0.9540 hc         1 HNF       0.079700
     24 H3           0.5230    -2.6710    -0.0560 ha         1 HNF       0.130000
     25 HO3          2.9680    -2.2490    -0.0920 ha         1 HNF       0.150000
     26 H5           2.2200     2.0560     0.0170 ha         1 HNF       0.152000
@<TRIPOS>BOND
     1     1     2 1   
     2     2     3 1   
     3     3     4 ar  
     4     3     8 ar  
     5     4     5 ar  
     6     4    19 1   
     7     5     6 ar  
     8     5    20 1   
     9     6     7 ar  
    10     6     9 1   
    11     7     8 ar  
    12     7    11 1   
    13     8    21 1   
    14     9    10 ar  
    15     9    12 ar  
    16    10    11 1   
    17    10    15 ar  
    18    11    22 1   
    19    11    23 1   
    20    12    13 ar  
    21    12    24 1   
    22    13    14 ar  
    23    13    25 1   
    24    14    15 ar  
    25    14    16 1   
    26    15    26 1   
    27    16    17 1   
    28    16    18 1   
@<TRIPOS>SUBSTRUCTURE
     1 HNF         1 TEMP              0 ****  ****    0 ROOT
