@<TRIPOS>MOLECULE
HNG
   22    23     1     0     0
SMALL
No Charge or Current Charge


@<TRIPOS>ATOM
      1 N1          -1.6440     1.2520     0.0300 nc         1 HNG      -0.784100
      2 C2          -2.3320     0.1610     0.0490 cd         1 HNG       0.895100
      3 N3          -1.7790    -1.0600     0.0040 na         1 HNG      -0.929200
      4 C4          -0.4170    -1.1770    -0.0510 cc         1 HNG       0.233000
      5 C5           0.3440    -0.0870    -0.0970 cd         1 HNG      -0.271600
      6 C6          -0.2780     1.2370    -0.0480 c          1 HNG       0.767100
      7 O6           0.3580     2.2800    -0.0690 o          1 HNG      -0.576100
      8 C7           1.6920    -0.5470    -0.1910 cd         1 HNG      -0.051300
      9 C10          2.9300     0.3170    -0.2800 c3         1 HNG       0.223100
     10 N11          3.0120     1.2430     0.8630 n8         1 HNG      -0.993200
     11 C8           1.6670    -1.9370    -0.2110 cc         1 HNG      -0.196000
     12 N9           0.3190    -2.3280    -0.1310 na         1 HNG      -0.135000
     13 N2          -3.6240     0.2130     0.1410 nv         1 HNG      -1.049200
     14 H1          -2.3910    -1.8620    -0.0180 hn         1 HNG       0.498000
     15 H2           3.8280    -0.3170    -0.2930 h1         1 HNG       0.033700
     16 H3           2.9000     0.9000    -1.2110 h1         1 HNG       0.033700
     17 H4           3.7970     1.8860     0.7090 hn         1 HNG       0.402000
     18 H5           2.1840     1.8530     0.8090 hn         1 HNG       0.402000
     19 H7           2.4780    -2.6530    -0.2800 h4         1 HNG       0.153000
     20 H8          -0.0450    -3.2730    -0.1320 hn         1 HNG       0.349000
     21 H9          -3.9460     1.1450     0.3560 hn         1 HNG       0.496500
     22 H10         -4.0410    -0.5120     0.7040 hn         1 HNG       0.496500
@<TRIPOS>BOND
     1     1     2 2   
     2     1     6 1   
     3     2     3 1   
     4     2    13 1   
     5     3     4 1   
     6     3    14 1   
     7     4     5 2   
     8     4    12 1   
     9     5     6 1   
    10     5     8 1   
    11     6     7 2   
    12     8     9 1   
    13     8    11 2   
    14     9    10 1   
    15     9    15 1   
    16     9    16 1   
    17    10    17 1   
    18    10    18 1   
    19    11    12 1   
    20    11    19 1   
    21    12    20 1   
    22    13    21 1   
    23    13    22 1   
@<TRIPOS>SUBSTRUCTURE
     1 HNG         1 TEMP              0 ****  ****    0 ROOT
