@<TRIPOS>MOLECULE
HNG
   22    23     1     0     0
SMALL
abcg2


@<TRIPOS>ATOM
      1 N1          -1.6700     1.2540     0.0240 nc         1 HNG      -0.784100
      2 C2          -2.3570     0.1460     0.0870 cd         1 HNG       0.895100
      3 N3          -1.7960    -1.0950     0.0660 na         1 HNG      -0.929200
      4 C4          -0.4400    -1.1600    -0.0340 cc         1 HNG       0.233000
      5 C5           0.3460    -0.0310    -0.1100 cd         1 HNG      -0.271600
      6 C6          -0.2990     1.2590    -0.0780 c          1 HNG       0.767100
      7 O6           0.3130     2.3260    -0.1310 o          1 HNG      -0.576100
      8 C7           1.7030    -0.4860    -0.2110 cd         1 HNG      -0.051300
      9 C10          2.9310     0.3570    -0.3260 c3         1 HNG       0.223100
     10 N11          3.1600     1.1410     0.8840 n8         1 HNG      -0.993200
     11 C8           1.6500    -1.8480    -0.1860 cc         1 HNG      -0.196000
     12 N9           0.3320    -2.2540    -0.0790 na         1 HNG      -0.135000
     13 N2          -3.6990     0.1930     0.1440 nv         1 HNG      -1.049200
     14 H1          -2.3640    -1.9280     0.1170 hn         1 HNG       0.498000
     15 H2           3.7910    -0.3010    -0.4760 h1         1 HNG       0.033700
     16 H3           2.8550     0.9750    -1.2310 h1         1 HNG       0.033700
     17 H4           4.0200     1.6630     0.7730 hn         1 HNG       0.402000
     18 H5           2.4260     1.8370     0.9490 hn         1 HNG       0.402000
     19 H7           2.4400    -2.5790    -0.2400 h4         1 HNG       0.153000
     20 H8           0.0190    -3.2110    -0.0460 hn         1 HNG       0.349000
     21 H9          -4.1160     1.0880     0.3370 hn         1 HNG       0.496500
     22 H10         -4.2330    -0.6130     0.4220 hn         1 HNG       0.496500
@<TRIPOS>BOND
     1     1     2 2   
     2     1     6 1   
     3     2     3 1   
     4     2    13 1   
     5     3     4 1   
     6     3    14 1   
     7     4     5 2   
     8     4    12 1   
     9     5     6 1   
    10     5     8 1   
    11     6     7 2   
    12     8     9 1   
    13     8    11 2   
    14     9    10 1   
    15     9    15 1   
    16     9    16 1   
    17    10    17 1   
    18    10    18 1   
    19    11    12 1   
    20    11    19 1   
    21    12    20 1   
    22    13    21 1   
    23    13    22 1   
@<TRIPOS>SUBSTRUCTURE
     1 HNG         1 TEMP              0 ****  ****    0 ROOT
