@<TRIPOS>MOLECULE
HNJ
   40    43     1     0     0
SMALL
No Charge or Current Charge


@<TRIPOS>ATOM
      1 C1          -3.4160     2.4830    -1.4370 c5         1 HNJ      -0.083400
      2 C2          -3.8340     2.7830     0.0240 c5         1 HNJ      -0.083400
      3 O1           3.9740    -1.6740     0.7530 o          1 HNJ      -0.526000
      4 O2           3.0830    -1.3850    -1.6360 o          1 HNJ      -0.526000
      5 C3          -4.0660     1.3500     0.5630 c5         1 HNJ       0.173300
      6 C4          -2.3710     1.3570    -1.2300 c5         1 HNJ       0.173300
      7 C5          -2.7370    -0.7840     0.1070 ca         1 HNJ       0.204000
      8 C6          -3.7860    -1.6850    -0.1560 ca         1 HNJ      -0.122000
      9 C7          -3.5980    -3.0680     0.0070 ca         1 HNJ      -0.110000
     10 N1          -2.9440     0.6150    -0.0740 nh         1 HNJ      -0.800400
     11 C8          -2.3570    -3.5610     0.4430 ca         1 HNJ      -0.097000
     12 C9          -1.3020    -2.6730     0.7140 ca         1 HNJ      -0.095000
     13 C10         -1.4770    -1.2850     0.5410 ca         1 HNJ       0.280000
     14 C11          0.9010    -0.3750     0.7340 ce         1 HNJ       0.786800
     15 C12          2.9050     0.6230     0.0520 ca         1 HNJ      -0.246500
     16 C13          3.8500     1.6190    -0.2250 ca         1 HNJ       0.014000
     17 C14          3.4860     2.9530     0.0570 ca         1 HNJ      -0.100000
     18 C15          2.2100     3.2520     0.5950 ca         1 HNJ      -0.079000
     19 C16          1.2790     2.2230     0.8590 ca         1 HNJ      -0.071000
     20 C17          1.6580     0.8980     0.5770 ca         1 HNJ      -0.175900
     21 N3           1.5000    -1.4500     0.3280 nf         1 HNJ      -0.774300
     22 S1           2.9940    -1.1310    -0.1940 sy         1 HNJ       1.172100
     23 H1          -4.2680     2.1300    -2.0300 hc         1 HNJ       0.049700
     24 H2          -3.0340     3.2930     0.5740 hc         1 HNJ       0.049700
     25 H3          -4.0230     1.3150     1.6600 h1         1 HNJ       0.046200
     26 H4          -2.2730     0.7290    -2.1270 h1         1 HNJ       0.046200
     27 H5          -4.7470    -1.3110    -0.4970 ha         1 HNJ       0.116000
     28 H6          -4.4140    -3.7560    -0.2010 ha         1 HNJ       0.118000
     29 H7          -2.2150    -4.6310     0.5780 ha         1 HNJ       0.123000
     30 H8          -0.3570    -3.0660     1.0750 ha         1 HNJ       0.163000
     31 H9          -0.8470     0.5910     0.7990 hn         1 HNJ       0.532000
     32 H10          4.8250     1.3770    -0.6450 ha         1 HNJ       0.137000
     33 H11          4.1910     3.7570    -0.1420 ha         1 HNJ       0.123000
     34 H12          1.9440     4.2850     0.8070 ha         1 HNJ       0.122000
     35 H13          0.3020     2.4590     1.2750 ha         1 HNJ       0.121000
     36 H14         -2.9960     3.3550    -1.9490 hc         1 HNJ       0.049700
     37 H15         -4.7320     3.4060     0.0920 hc         1 HNJ       0.049700
     38 H16         -5.0390     0.9580     0.2350 h1         1 HNJ       0.046200
     39 H17         -1.3820     1.7720    -0.9880 h1         1 HNJ       0.046200
     40 N2          -0.4740    -0.3530     0.8390 nu         1 HNJ      -0.851200
@<TRIPOS>BOND
     1     1     2 1   
     2     1     6 1   
     3     1    23 1   
     4     1    36 1   
     5     2     5 1   
     6     2    24 1   
     7     2    37 1   
     8     3    22 2   
     9     4    22 2   
    10     5    10 1   
    11     5    25 1   
    12     5    38 1   
    13     6    10 1   
    14     6    26 1   
    15     6    39 1   
    16     7     8 ar  
    17     7    10 1   
    18     7    13 ar  
    19     8     9 ar  
    20     8    27 1   
    21     9    11 ar  
    22     9    28 1   
    23    11    12 ar  
    24    11    29 1   
    25    12    13 ar  
    26    12    30 1   
    27    13    40 1   
    28    14    20 1   
    29    14    21 2   
    30    14    40 1   
    31    15    16 ar  
    32    15    20 ar  
    33    15    22 1   
    34    16    17 ar  
    35    16    32 1   
    36    17    18 ar  
    37    17    33 1   
    38    18    19 ar  
    39    18    34 1   
    40    19    20 ar  
    41    19    35 1   
    42    21    22 1   
    43    31    40 1   
@<TRIPOS>SUBSTRUCTURE
     1 HNJ         1 TEMP              0 ****  ****    0 ROOT
