@<TRIPOS>MOLECULE
HNJ
   40    43     1     0     0
SMALL
abcg2


@<TRIPOS>ATOM
      1 C1          -3.1530     2.6310    -1.2110 c5         1 HNJ      -0.083400
      2 C2          -3.9360     2.7120     0.1170 c5         1 HNJ      -0.083400
      3 O1           3.8290    -1.6930     1.0600 o          1 HNJ      -0.526000
      4 O2           3.6010    -1.4390    -1.3990 o          1 HNJ      -0.526000
      5 C3          -4.1250     1.2560     0.5340 c5         1 HNJ       0.173300
      6 C4          -2.7900     1.1510    -1.3640 c5         1 HNJ       0.173300
      7 C5          -2.7620    -0.7660     0.1470 ca         1 HNJ       0.204000
      8 C6          -3.8060    -1.6800     0.1710 ca         1 HNJ      -0.122000
      9 C7          -3.5530    -3.0380     0.3180 ca         1 HNJ      -0.110000
     10 N1          -2.9290     0.6240    -0.0030 nh         1 HNJ      -0.800400
     11 C8          -2.2490    -3.4910     0.4350 ca         1 HNJ      -0.097000
     12 C9          -1.1870    -2.5960     0.4300 ca         1 HNJ      -0.095000
     13 C10         -1.4440    -1.2370     0.2960 ca         1 HNJ       0.280000
     14 C11          0.8460    -0.3050     0.2300 ce         1 HNJ       0.786800
     15 C12          2.9820     0.6550     0.1270 ca         1 HNJ      -0.246500
     16 C13          3.9630     1.6220     0.1200 ca         1 HNJ       0.014000
     17 C14          3.5500     2.9410     0.2840 ca         1 HNJ      -0.100000
     18 C15          2.2040     3.2540     0.4460 ca         1 HNJ      -0.079000
     19 C16          1.2320     2.2600     0.4490 ca         1 HNJ      -0.071000
     20 C17          1.6410     0.9480     0.2870 ca         1 HNJ      -0.175900
     21 N3           1.5120    -1.4090     0.0520 nf         1 HNJ      -0.774300
     22 S1           3.1260    -1.1030    -0.0670 sy         1 HNJ       1.172100
     23 H1          -3.7430     2.9730    -2.0600 hc         1 HNJ       0.049700
     24 H2          -3.3540     3.2440     0.8710 hc         1 HNJ       0.049700
     25 H3          -4.1860     1.1140     1.6130 h1         1 HNJ       0.046200
     26 H4          -3.4860     0.6480    -2.0480 h1         1 HNJ       0.046200
     27 H5          -4.8260    -1.3350     0.0660 ha         1 HNJ       0.116000
     28 H6          -4.3770    -3.7400     0.3320 ha         1 HNJ       0.118000
     29 H7          -2.0470    -4.5490     0.5430 ha         1 HNJ       0.123000
     30 H8          -0.1760    -2.9540     0.5450 ha         1 HNJ       0.163000
     31 H9          -0.8960     0.6800     0.4840 hn         1 HNJ       0.532000
     32 H10          5.0080     1.3750    -0.0070 ha         1 HNJ       0.137000
     33 H11          4.2870     3.7330     0.2860 ha         1 HNJ       0.123000
     34 H12          1.9080     4.2860     0.5710 ha         1 HNJ       0.122000
     35 H13          0.1920     2.5320     0.5810 ha         1 HNJ       0.121000
     36 H14         -2.2600     3.2560    -1.1740 hc         1 HNJ       0.049700
     37 H15         -4.8890     3.2280     0.0130 hc         1 HNJ       0.049700
     38 H16         -5.0440     0.8550     0.0860 h1         1 HNJ       0.046200
     39 H17         -1.7820     0.9890    -1.7500 h1         1 HNJ       0.046200
     40 N2          -0.4710    -0.2340     0.3470 nu         1 HNJ      -0.851200
@<TRIPOS>BOND
     1     1     2 1   
     2     1     6 1   
     3     1    23 1   
     4     1    36 1   
     5     2     5 1   
     6     2    24 1   
     7     2    37 1   
     8     3    22 2   
     9     4    22 2   
    10     5    10 1   
    11     5    25 1   
    12     5    38 1   
    13     6    10 1   
    14     6    26 1   
    15     6    39 1   
    16     7     8 ar  
    17     7    10 1   
    18     7    13 ar  
    19     8     9 ar  
    20     8    27 1   
    21     9    11 ar  
    22     9    28 1   
    23    11    12 ar  
    24    11    29 1   
    25    12    13 ar  
    26    12    30 1   
    27    13    40 1   
    28    14    20 1   
    29    14    21 2   
    30    14    40 1   
    31    15    16 ar  
    32    15    20 ar  
    33    15    22 1   
    34    16    17 ar  
    35    16    32 1   
    36    17    18 ar  
    37    17    33 1   
    38    18    19 ar  
    39    18    34 1   
    40    19    20 ar  
    41    19    35 1   
    42    21    22 1   
    43    31    40 1   
@<TRIPOS>SUBSTRUCTURE
     1 HNJ         1 TEMP              0 ****  ****    0 ROOT
