@<TRIPOS>MOLECULE
HNO
   30    31     1     0     0
SMALL
No Charge or Current Charge


@<TRIPOS>ATOM
      1 C12        106.5700   133.6880   100.8910 ca         1 HNO       0.262900
      2 C14        107.6620   133.7670   101.8120 ca         1 HNO       0.596900
      3 C16        108.4380   133.7680   104.3170 c3         1 HNO       0.264200
      4 C17        109.1140   135.1620   104.3320 c3         1 HNO      -0.104433
      5 C18        107.6060   133.6010   105.6100 c3         1 HNO      -0.104433
      6 C19        109.4850   132.6280   104.2440 c3         1 HNO      -0.104433
      7 C20        109.1140   134.0380   100.0420 ca         1 HNO       0.300000
      8 C21        108.0160   133.9600    99.1160 ca         1 HNO       0.161000
      9 C22        108.2770   134.0680    97.7370 ca         1 HNO      -0.033000
     10 C23        109.5840   134.2500    97.2600 ca         1 HNO       0.096000
     11 C24        110.6570   134.3270    98.1680 ca         1 HNO       0.148000
     12 C25        110.4160   134.2210    99.5460 ca         1 HNO      -0.093000
     13 N13        106.7370   133.7830    99.5420 nb         1 HNO      -0.591000
     14 N15        107.4810   133.6660   103.1990 nu         1 HNO      -0.937100
     15 N28        108.9290   133.9410   101.3850 nb         1 HNO      -0.743000
     16 Cl1        109.8520   134.3800    95.5200 cl         1 HNO      -0.177000
     17 Cl2        112.3130   134.5560    97.6040 cl         1 HNO      -0.177000
     18 H1         105.5500   133.5460   101.2440 h4         1 HNO       0.025100
     19 H2         109.7220   135.2850   105.2360 hc         1 HNO       0.047367
     20 H3         109.7770   135.3040   103.4730 hc         1 HNO       0.047367
     21 H4         108.3630   135.9610   104.3200 hc         1 HNO       0.047367
     22 H5         108.2490   133.6650   106.4970 hc         1 HNO       0.047367
     23 H6         106.8430   134.3850   105.6940 hc         1 HNO       0.047367
     24 H7         107.1010   132.6280   105.6330 hc         1 HNO       0.047367
     25 H8         110.1120   132.6240   105.1430 hc         1 HNO       0.047367
     26 H9         108.9940   131.6500   104.1710 hc         1 HNO       0.047367
     27 H10        110.1520   132.7410   103.3830 hc         1 HNO       0.047367
     28 H11        107.4540   134.0100    97.0310 ha         1 HNO       0.146000
     29 H12        111.2480   134.2810   100.2410 ha         1 HNO       0.147000
     30 H13        106.5090   133.5210   103.4680 hn         1 HNO       0.491000
@<TRIPOS>BOND
     1     1     2 ar  
     2     1    13 ar  
     3     1    18 1   
     4     2    14 1   
     5     2    15 ar  
     6     3     4 1   
     7     3     5 1   
     8     3     6 1   
     9     3    14 1   
    10     4    19 1   
    11     4    20 1   
    12     4    21 1   
    13     5    22 1   
    14     5    23 1   
    15     5    24 1   
    16     6    25 1   
    17     6    26 1   
    18     6    27 1   
    19     7     8 ar  
    20     7    12 ar  
    21     7    15 ar  
    22     8     9 ar  
    23     8    13 ar  
    24     9    10 ar  
    25     9    28 1   
    26    10    11 ar  
    27    10    16 1   
    28    11    12 ar  
    29    11    17 1   
    30    12    29 1   
    31    14    30 1   
@<TRIPOS>SUBSTRUCTURE
     1 HNO         1 TEMP              0 ****  ****    0 ROOT
