@<TRIPOS>MOLECULE
HNO
   30    31     1     0     0
SMALL
abcg2


@<TRIPOS>ATOM
      1 C12        106.6520   133.7000   100.9260 ca         1 HNO       0.262900
      2 C14        107.7690   133.7830   101.8490 ca         1 HNO       0.596900
      3 C16        108.4210   133.7670   104.3060 c3         1 HNO       0.264200
      4 C17        109.0930   135.1460   104.3370 c3         1 HNO      -0.104433
      5 C18        107.5640   133.5850   105.5600 c3         1 HNO      -0.104433
      6 C19        109.4690   132.6490   104.2360 c3         1 HNO      -0.104433
      7 C20        109.1630   134.0460   100.0550 ca         1 HNO       0.300000
      8 C21        108.0660   133.9650    99.1590 ca         1 HNO       0.161000
      9 C22        108.2740   134.0630    97.7760 ca         1 HNO      -0.033000
     10 C23        109.5440   134.2380    97.2760 ca         1 HNO       0.096000
     11 C24        110.6400   134.3180    98.1620 ca         1 HNO       0.148000
     12 C25        110.4540   134.2250    99.5220 ca         1 HNO      -0.093000
     13 N13        106.7930   133.7880    99.6430 nb         1 HNO      -0.591000
     14 N15        107.4910   133.6740   103.1630 nu         1 HNO      -0.937100
     15 N28        108.9990   133.9550   101.4010 nb         1 HNO      -0.743000
     16 CL1        109.7730   134.3580    95.5550 cl         1 HNO      -0.177000
     17 CL2        112.2540   134.5350    97.5490 cl         1 HNO      -0.177000
     18 H1         105.6510   133.5600   101.3260 h4         1 HNO       0.025100
     19 H2         109.7340   135.2220   105.2170 hc         1 HNO       0.047367
     20 H3         109.7020   135.3030   103.4480 hc         1 HNO       0.047367
     21 H4         108.3380   135.9330   104.3890 hc         1 HNO       0.047367
     22 H5         108.1920   133.6470   106.4480 hc         1 HNO       0.047367
     23 H6         106.8000   134.3630   105.6240 hc         1 HNO       0.047367
     24 H7         107.0710   132.6100   105.5540 hc         1 HNO       0.047367
     25 H8         110.1140   132.6990   105.1150 hc         1 HNO       0.047367
     26 H9         108.9800   131.6730   104.2210 hc         1 HNO       0.047367
     27 H10        110.0850   132.7470   103.3450 hc         1 HNO       0.047367
     28 H11        107.4250   134.0000    97.1100 ha         1 HNO       0.146000
     29 H12        111.2980   134.2860   100.1950 ha         1 HNO       0.147000
     30 H13        106.5160   133.5680   103.3950 hn         1 HNO       0.491000
@<TRIPOS>BOND
     1     1     2 ar  
     2     1    13 ar  
     3     1    18 1   
     4     2    14 1   
     5     2    15 ar  
     6     3     4 1   
     7     3     5 1   
     8     3     6 1   
     9     3    14 1   
    10     4    19 1   
    11     4    20 1   
    12     4    21 1   
    13     5    22 1   
    14     5    23 1   
    15     5    24 1   
    16     6    25 1   
    17     6    26 1   
    18     6    27 1   
    19     7     8 ar  
    20     7    12 ar  
    21     7    15 ar  
    22     8     9 ar  
    23     8    13 ar  
    24     9    10 ar  
    25     9    28 1   
    26    10    11 ar  
    27    10    16 1   
    28    11    12 ar  
    29    11    17 1   
    30    12    29 1   
    31    14    30 1   
@<TRIPOS>SUBSTRUCTURE
     1 HNO         1 TEMP              0 ****  ****    0 ROOT
