@<TRIPOS>MOLECULE
HNQ
   20    21     1     0     0
SMALL
bcc


@<TRIPOS>ATOM
      1 C1          -1.1370     0.5510     0.0100 ca         1 HNQ      -0.222200
      2 N1          -2.5370     0.2070    -0.0030 no         1 HNQ       0.323200
      3 O1          -3.3260     1.0270    -0.4180 o          1 HNQ      -0.217000
      4 C2          -0.8260     1.8920     0.0260 ca         1 HNQ       0.006000
      5 N2           2.3000    -0.7730     0.1250 nb         1 HNQ      -0.694000
      6 O2          -2.8720    -0.8780     0.4220 o          1 HNQ      -0.217000
      7 C3           0.4910     2.3420     0.0980 ca         1 HNQ      -0.215000
      8 O3           2.7780     1.8070     0.2160 oh         1 HNQ      -0.465100
      9 C4           1.5150     1.4260     0.1430 ca         1 HNQ       0.164800
     10 C5           1.2200     0.0280     0.1030 ca         1 HNQ       0.299600
     11 C6           2.1270    -2.0650     0.0630 ca         1 HNQ       0.428200
     12 C7           0.8500    -2.6440    -0.0420 ca         1 HNQ      -0.228300
     13 C8          -0.2600    -1.8450    -0.0560 ca         1 HNQ      -0.072000
     14 C9          -0.1120    -0.4390     0.0350 ca         1 HNQ      -0.050300
     15 H2          -1.6150     2.6290     0.0050 ha         1 HNQ       0.170000
     16 H3           0.6980     3.4030     0.1260 ha         1 HNQ       0.166000
     17 HO3          3.3290     1.0020     0.2300 ho         1 HNQ       0.472000
     18 H6           3.0120    -2.6890     0.0860 h4         1 HNQ       0.029100
     19 H7           0.7530    -3.7180    -0.1130 ha         1 HNQ       0.152000
     20 H8          -1.2310    -2.3020    -0.1460 ha         1 HNQ       0.173000
@<TRIPOS>BOND
     1     1     2 1   
     2     1     4 ar  
     3     1    14 ar  
     4     2     3 1   
     5     2     6 1   
     6     4     7 ar  
     7     4    15 1   
     8     5    10 ar  
     9     5    11 ar  
    10     7     9 ar  
    11     7    16 1   
    12     8     9 1   
    13     8    17 1   
    14     9    10 ar  
    15    10    14 ar  
    16    11    12 ar  
    17    11    18 1   
    18    12    13 ar  
    19    12    19 1   
    20    13    14 ar  
    21    13    20 1   
@<TRIPOS>SUBSTRUCTURE
     1 HNQ         1 TEMP              0 ****  ****    0 ROOT
