@<TRIPOS>MOLECULE
HNQ
   20    21     1     0     0
SMALL
No Charge or Current Charge


@<TRIPOS>ATOM
      1 C1          -1.1230     0.5340     0.0110 ca         1 HNQ      -0.222200
      2 N1          -2.5500     0.1160    -0.0420 no         1 HNQ       0.703200
      3 O1          -3.2970     0.7320    -0.8130 o          1 HNQ      -0.407000
      4 C2          -0.8440     1.9160     0.0660 ca         1 HNQ       0.024000
      5 N2           2.3560    -0.8040     0.1080 nb         1 HNQ      -0.694000
      6 O2          -2.9550    -0.6610     0.8320 o          1 HNQ      -0.407000
      7 C3           0.4810     2.3660     0.1440 ca         1 HNQ      -0.197000
      8 O3           2.8200     1.8890     0.2420 oh         1 HNQ      -0.504100
      9 C4           1.5330     1.4440     0.1640 ca         1 HNQ       0.230100
     10 C5           1.2930     0.0510     0.0980 ca         1 HNQ       0.169000
     11 C6           2.1220    -2.1340     0.0280 ca         1 HNQ       0.362900
     12 C7           0.8310    -2.6680    -0.0720 ca         1 HNQ      -0.145000
     13 C8          -0.2740    -1.8010    -0.0830 ca         1 HNQ      -0.054000
     14 C9          -0.0540    -0.4070     0.0150 ca         1 HNQ       0.015000
     15 H2          -1.6550     2.6440     0.0610 ha         1 HNQ       0.152000
     16 H3           0.6920     3.4310     0.1930 ha         1 HNQ       0.148000
     17 HO3          3.3630     1.0670     0.2350 ho         1 HNQ       0.511000
     18 H6           2.9950    -2.7860     0.0390 h4         1 HNQ       0.029100
     19 H7           0.6940    -3.7430    -0.1430 ha         1 HNQ       0.134000
     20 H8          -1.2700    -2.2250    -0.1740 ha         1 HNQ       0.155000
@<TRIPOS>BOND
     1     1     2 1   
     2     1     4 ar  
     3     1    14 ar  
     4     2     3 1   
     5     2     6 1   
     6     4     7 ar  
     7     4    15 1   
     8     5    10 ar  
     9     5    11 ar  
    10     7     9 ar  
    11     7    16 1   
    12     8     9 1   
    13     8    17 1   
    14     9    10 ar  
    15    10    14 ar  
    16    11    12 ar  
    17    11    18 1   
    18    12    13 ar  
    19    12    19 1   
    20    13    14 ar  
    21    13    20 1   
@<TRIPOS>SUBSTRUCTURE
     1 HNQ         1 TEMP              0 ****  ****    0 ROOT
