@<TRIPOS>MOLECULE
HNR
   44    45     1     0     0
SMALL
No Charge or Current Charge


@<TRIPOS>ATOM
      1 CAW          6.5440     0.0660    -0.4590 c3         1 HNR      -0.089100
      2 CAX          5.1710    -0.5510    -0.7890 c3         1 HNR      -0.073400
      3 CAV          4.0720    -0.1520     0.2200 c3         1 HNR      -0.103400
      4 CAU          2.6980    -0.7780    -0.1100 c3         1 HNR       0.090000
      5 NAQ          1.6270    -0.3730     0.8480 n          1 HNR      -0.334000
      6 CAR          0.8580     0.7760     0.6740 cc         1 HNR       0.423600
      7 NAS          1.1810     1.5840    -0.3650 nv         1 HNR      -0.957000
      8 CAP          1.3680    -1.2340     1.9270 c          1 HNR       0.627000
      9 OAO          2.0010    -2.2550     2.1440 o          1 HNR      -0.554000
     10 NAG          0.3610    -0.8790     2.7530 ns         1 HNR      -0.465500
     11 CAH         -0.4520     0.1970     2.6780 c          1 HNR       0.605200
     12 OAA         -1.3350     0.3690     3.5040 o          1 HNR      -0.546000
     13 CAI         -0.1770     1.1050     1.5310 cd         1 HNR      -0.275200
     14 NAJ         -0.9740     2.2740     1.3010 nh         1 HNR      -0.575300
     15 CAB         -1.0990     3.2990     2.3540 c3         1 HNR       0.195100
     16 SAK         -2.0960     2.4240     0.0040 sy         1 HNR       1.151600
     17 OAT         -3.3360     2.9850     0.5580 o          1 HNR      -0.550500
     18 OAC         -1.3800     3.0790    -1.0980 o          1 HNR      -0.550500
     19 CAL         -2.3660     0.6840    -0.3940 ca         1 HNR      -0.278500
     20 CAM         -3.2210    -0.0920     0.4160 ca         1 HNR      -0.007500
     21 CAN         -3.4070    -1.4570     0.1350 ca         1 HNR      -0.127500
     22 CAF         -2.7410    -2.0520    -0.9500 ca         1 HNR      -0.052000
     23 CAE         -1.8870    -1.2810    -1.7560 ca         1 HNR      -0.127500
     24 CAD         -1.6970     0.0850    -1.4810 ca         1 HNR      -0.007500
     25 HAW1         6.4900     1.1610    -0.4650 hc         1 HNR       0.037033
     26 HAW2         6.8880    -0.2590     0.5310 hc         1 HNR       0.037033
     27 HAW3         7.2900    -0.2450    -1.2000 hc         1 HNR       0.037033
     28 HAX1         4.8720    -0.2360    -1.7970 hc         1 HNR       0.040700
     29 HAX2         5.2670    -1.6440    -0.8100 hc         1 HNR       0.040700
     30 HAV1         4.3740    -0.4700     1.2250 hc         1 HNR       0.053700
     31 HAV2         3.9850     0.9400     0.2470 hc         1 HNR       0.053700
     32 HAU1         2.4030    -0.5050    -1.1310 h1         1 HNR       0.071700
     33 HAU2         2.7990    -1.8710    -0.1170 h1         1 HNR       0.071700
     34 HAS1         2.1430     1.6200    -0.6750 hn         1 HNR       0.515000
     35 HAS2         0.6560     2.4530    -0.4230 hn         1 HNR       0.515000
     36 HAG          0.1880    -1.5050     3.5220 hn         1 HNR       0.347500
     37 HAB1        -1.1580     4.3040     1.9160 h1         1 HNR       0.053033
     38 HAB2        -2.0000     3.1240     2.9560 h1         1 HNR       0.053033
     39 HAB3        -0.2280     3.2690     3.0220 h1         1 HNR       0.053033
     40 HAM         -3.7300     0.3560     1.2680 ha         1 HNR       0.130500
     41 HAD         -1.0250     0.6670    -2.1090 ha         1 HNR       0.130500
     42 HAN         -4.0640    -2.0540     0.7630 ha         1 HNR       0.115500
     43 HAF         -2.8850    -3.1090    -1.1640 ha         1 HNR       0.113000
     44 HAE         -1.3690    -1.7420    -2.5940 ha         1 HNR       0.115500
@<TRIPOS>BOND
     1     1     2 1   
     2     1    25 1   
     3     1    26 1   
     4     1    27 1   
     5     2     3 1   
     6     2    28 1   
     7     2    29 1   
     8     3     4 1   
     9     3    30 1   
    10     3    31 1   
    11     4     5 1   
    12     4    32 1   
    13     4    33 1   
    14     5     6 1   
    15     5     8 1   
    16     6     7 1   
    17     6    13 2   
    18     7    34 1   
    19     7    35 1   
    20     8     9 2   
    21     8    10 1   
    22    10    11 1   
    23    10    36 1   
    24    11    12 2   
    25    11    13 1   
    26    13    14 1   
    27    14    15 1   
    28    14    16 1   
    29    15    37 1   
    30    15    38 1   
    31    15    39 1   
    32    16    17 2   
    33    16    18 2   
    34    16    19 1   
    35    19    20 ar  
    36    19    24 ar  
    37    20    21 ar  
    38    20    40 1   
    39    21    22 ar  
    40    21    42 1   
    41    22    23 ar  
    42    22    43 1   
    43    23    24 ar  
    44    23    44 1   
    45    24    41 1   
@<TRIPOS>SUBSTRUCTURE
     1 HNR         1 TEMP              0 ****  ****    0 ROOT
