@<TRIPOS>MOLECULE
HNR
   44    45     1     0     0
SMALL
abcg2


@<TRIPOS>ATOM
      1 CAW          7.0340     0.8730     0.5850 c3         1 HNR      -0.089100
      2 CAX          5.9410     0.3150    -0.3150 c3         1 HNR      -0.073400
      3 CAV          4.5930     0.2360     0.3910 c3         1 HNR      -0.103400
      4 CAU          3.5190    -0.3500    -0.5140 c3         1 HNR       0.090000
      5 NAQ          2.2030    -0.4070     0.1270 n          1 HNR      -0.334000
      6 CAR          1.3640     0.6790     0.1380 cc         1 HNR       0.423600
      7 NAS          1.7740     1.8030    -0.4410 nv         1 HNR      -0.957000
      8 CAP          1.8890    -1.5740     0.8080 c          1 HNR       0.627000
      9 OAO          2.6470    -2.5220     0.8460 o          1 HNR      -0.554000
     10 NAG          0.6810    -1.5870     1.4330 ns         1 HNR      -0.465500
     11 CAH         -0.2580    -0.5610     1.4790 c          1 HNR       0.605200
     12 OAA         -1.2830    -0.7090     2.1260 o          1 HNR      -0.546000
     13 CAI          0.1190     0.6000     0.7480 cd         1 HNR      -0.275200
     14 NAJ         -0.7070     1.7460     0.7480 nh         1 HNR      -0.575300
     15 CAB         -1.0280     2.3860     2.0240 c3         1 HNR       0.195100
     16 SAK         -1.8400     1.8200    -0.4710 sy         1 HNR       1.151600
     17 OAT         -2.5560     3.0750    -0.2990 o          1 HNR      -0.550500
     18 OAC         -1.1350     1.5620    -1.7160 o          1 HNR      -0.550500
     19 CAL         -2.9710     0.4880    -0.2050 ca         1 HNR      -0.278500
     20 CAM         -4.0460     0.6770     0.6540 ca         1 HNR      -0.007500
     21 CAN         -4.8980    -0.3860     0.9060 ca         1 HNR      -0.127500
     22 CAF         -4.6730    -1.6170     0.3030 ca         1 HNR      -0.052000
     23 CAE         -3.6010    -1.7880    -0.5620 ca         1 HNR      -0.127500
     24 CAD         -2.7410    -0.7330    -0.8230 ca         1 HNR      -0.007500
     25 HAW1         6.7830     1.8760     0.9340 hc         1 HNR       0.037033
     26 HAW2         7.1790     0.2440     1.4650 hc         1 HNR       0.037033
     27 HAW3         7.9870     0.9330     0.0600 hc         1 HNR       0.037033
     28 HAX1         5.8480     0.9400    -1.2080 hc         1 HNR       0.040700
     29 HAX2         6.2270    -0.6810    -0.6660 hc         1 HNR       0.040700
     30 HAV1         4.6790    -0.3870     1.2850 hc         1 HNR       0.053700
     31 HAV2         4.2990     1.2320     0.7350 hc         1 HNR       0.053700
     32 HAU1         3.4330     0.2030    -1.4500 h1         1 HNR       0.071700
     33 HAU2         3.7860    -1.3640    -0.8020 h1         1 HNR       0.071700
     34 HAS1         2.6520     1.9040    -0.9160 hn         1 HNR       0.515000
     35 HAS2         1.1490     2.5900    -0.4650 hn         1 HNR       0.515000
     36 HAG          0.4620    -2.4300     1.9470 hn         1 HNR       0.347500
     37 HAB1        -1.2560     3.4380     1.8760 h1         1 HNR       0.053033
     38 HAB2        -1.8540     1.9040     2.5480 h1         1 HNR       0.053033
     39 HAB3        -0.1400     2.3170     2.6470 h1         1 HNR       0.053033
     40 HAM         -4.2280     1.6380     1.1160 ha         1 HNR       0.130500
     41 HAD         -1.9090    -0.8660    -1.5010 ha         1 HNR       0.130500
     42 HAN         -5.7400    -0.2510     1.5710 ha         1 HNR       0.115500
     43 HAF         -5.3420    -2.4440     0.5030 ha         1 HNR       0.113000
     44 HAE         -3.4340    -2.7450    -1.0390 ha         1 HNR       0.115500
@<TRIPOS>BOND
     1     1     2 1   
     2     1    25 1   
     3     1    26 1   
     4     1    27 1   
     5     2     3 1   
     6     2    28 1   
     7     2    29 1   
     8     3     4 1   
     9     3    30 1   
    10     3    31 1   
    11     4     5 1   
    12     4    32 1   
    13     4    33 1   
    14     5     6 1   
    15     5     8 1   
    16     6     7 1   
    17     6    13 2   
    18     7    34 1   
    19     7    35 1   
    20     8     9 2   
    21     8    10 1   
    22    10    11 1   
    23    10    36 1   
    24    11    12 2   
    25    11    13 1   
    26    13    14 1   
    27    14    15 1   
    28    14    16 1   
    29    15    37 1   
    30    15    38 1   
    31    15    39 1   
    32    16    17 2   
    33    16    18 2   
    34    16    19 1   
    35    19    20 ar  
    36    19    24 ar  
    37    20    21 ar  
    38    20    40 1   
    39    21    22 ar  
    40    21    42 1   
    41    22    23 ar  
    42    22    43 1   
    43    23    24 ar  
    44    23    44 1   
    45    24    41 1   
@<TRIPOS>SUBSTRUCTURE
     1 HNR         1 TEMP              0 ****  ****    0 ROOT
