@<TRIPOS>MOLECULE
HNS
   28    29     1     0     0
SMALL
No Charge or Current Charge


@<TRIPOS>ATOM
      1 OAB          2.1660    -2.7490    -0.3330 o          1 HNS      -0.696500
      2 CAL          2.7420    -1.6710    -0.2390 c          1 HNS       0.726200
      3 OAD          3.9640    -1.5920    -0.2620 o          1 HNS      -0.696500
      4 CAQ          1.8610    -0.4470    -0.0910 cc         1 HNS      -0.020200
      5 NAK          0.4410    -0.5220    -0.0570 na         1 HNS      -0.571000
      6 CAO          2.3500     0.8500     0.0470 cd         1 HNS      -0.034100
      7 OAE          3.6670     1.1990     0.0630 oh         1 HNS      -0.493100
      8 CAR          1.4710     2.0240     0.2100 c          1 HNS       0.523500
      9 OAC          1.9160     3.1590     0.3510 o          1 HNS      -0.682100
     10 CAJ          0.0540     1.7600     0.1850 cc         1 HNS      -0.405200
     11 CAN         -0.5010     0.5180    -0.0070 cd         1 HNS       0.173800
     12 CAP         -1.9710     0.2540     0.0370 ca         1 HNS      -0.057800
     13 CAI         -2.8120     1.1830     0.7030 ca         1 HNS      -0.081000
     14 CAG         -4.1960     0.9780     0.8070 ca         1 HNS      -0.127000
     15 CAF         -4.7790    -0.1600     0.2440 ca         1 HNS      -0.109000
     16 CAH         -3.9770    -1.0860    -0.4330 ca         1 HNS      -0.123000
     17 CAM         -2.5840    -0.8970    -0.5530 ca         1 HNS      -0.047300
     18 CAA         -1.8250    -1.9240    -1.3950 c3         1 HNS      -0.058800
     19 H2           0.0590    -1.4650    -0.0890 hn         1 HNS       0.538000
     20 H3           3.6710     2.1790     0.1840 ho         1 HNS       0.463000
     21 H4          -0.5520     2.6510     0.2780 ha         1 HNS       0.186000
     22 H5          -2.3980     2.0620     1.1870 ha         1 HNS       0.124000
     23 H6          -4.8140     1.7010     1.3350 ha         1 HNS       0.106000
     24 H7          -5.8520    -0.3210     0.3240 ha         1 HNS       0.101000
     25 H8          -4.4490    -1.9580    -0.8820 ha         1 HNS       0.105000
     26 H9          -1.3060    -2.6560    -0.7650 hc         1 HNS       0.052033
     27 H10         -2.5030    -2.4900    -2.0440 hc         1 HNS       0.052033
     28 H11         -1.0960    -1.4450    -2.0600 hc         1 HNS       0.052033
@<TRIPOS>BOND
     1     1     2 1   
     2     2     3 1   
     3     2     4 1   
     4     4     5 1   
     5     4     6 2   
     6     5    11 1   
     7     5    19 1   
     8     6     7 1   
     9     6     8 1   
    10     7    20 1   
    11     8     9 2   
    12     8    10 1   
    13    10    11 2   
    14    10    21 1   
    15    11    12 1   
    16    12    13 ar  
    17    12    17 ar  
    18    13    14 ar  
    19    13    22 1   
    20    14    15 ar  
    21    14    23 1   
    22    15    16 ar  
    23    15    24 1   
    24    16    17 ar  
    25    16    25 1   
    26    17    18 1   
    27    18    26 1   
    28    18    27 1   
    29    18    28 1   
@<TRIPOS>SUBSTRUCTURE
     1 HNS         1 TEMP              0 ****  ****    0 ROOT
