@<TRIPOS>MOLECULE
HNS
   28    29     1     0     0
SMALL
bcc


@<TRIPOS>ATOM
      1 OAB          1.7440    -2.6870     0.6190 o          1 HNS      -0.801800
      2 CAL          2.4850    -1.7040     0.4170 c          1 HNS       0.936800
      3 OAD          3.7210    -1.6670     0.3890 o          1 HNS      -0.801800
      4 CAQ          1.7380    -0.3990     0.1790 cc         1 HNS      -0.020200
      5 NAK          0.3790    -0.5200     0.2260 na         1 HNS      -0.515800
      6 CAO          2.2640     0.8360    -0.0610 cd         1 HNS      -0.034100
      7 OAE          3.5750     1.0880    -0.1330 oh         1 HNS      -0.454100
      8 CAR          1.4040     1.9970    -0.2570 c          1 HNS       0.523500
      9 OAC          1.9430     3.1020    -0.4650 o          1 HNS      -0.682100
     10 CAJ          0.0050     1.7500    -0.2010 cc         1 HNS      -0.355200
     11 CAN         -0.4790     0.4890     0.0420 cd         1 HNS       0.173800
     12 CAP         -1.9240     0.1880     0.1210 ca         1 HNS      -0.057800
     13 CAI         -2.6920     0.8850     1.0510 ca         1 HNS      -0.099000
     14 CAG         -4.0520     0.6450     1.1710 ca         1 HNS      -0.145000
     15 CAF         -4.6510    -0.2960     0.3480 ca         1 HNS      -0.127000
     16 CAH         -3.8900    -0.9810    -0.5890 ca         1 HNS      -0.141000
     17 CAM         -2.5220    -0.7570    -0.7240 ca         1 HNS      -0.047300
     18 CAA         -1.7440    -1.4980    -1.7770 c3         1 HNS      -0.058800
     19 H2           0.0590    -1.4560     0.4510 hn         1 HNS       0.482800
     20 H3           3.6340     2.0460    -0.3040 ho         1 HNS       0.424000
     21 H4          -0.6890     2.5630    -0.3620 ha         1 HNS       0.136000
     22 H5          -2.2130     1.6140     1.6930 ha         1 HNS       0.142000
     23 H6          -4.6360     1.1880     1.9020 ha         1 HNS       0.124000
     24 H7          -5.7120    -0.4950     0.4280 ha         1 HNS       0.119000
     25 H8          -4.3720    -1.7010    -1.2410 ha         1 HNS       0.123000
     26 H9          -1.1390    -2.3030    -1.3550 hc         1 HNS       0.052033
     27 H10         -2.4180    -1.9540    -2.5000 hc         1 HNS       0.052033
     28 H11         -1.0690    -0.8380    -2.3220 hc         1 HNS       0.052033
@<TRIPOS>BOND
     1     1     2 1   
     2     2     3 1   
     3     2     4 1   
     4     4     5 1   
     5     4     6 2   
     6     5    11 1   
     7     5    19 1   
     8     6     7 1   
     9     6     8 1   
    10     7    20 1   
    11     8     9 2   
    12     8    10 1   
    13    10    11 2   
    14    10    21 1   
    15    11    12 1   
    16    12    13 ar  
    17    12    17 ar  
    18    13    14 ar  
    19    13    22 1   
    20    14    15 ar  
    21    14    23 1   
    22    15    16 ar  
    23    15    24 1   
    24    16    17 ar  
    25    16    25 1   
    26    17    18 1   
    27    18    26 1   
    28    18    27 1   
    29    18    28 1   
@<TRIPOS>SUBSTRUCTURE
     1 HNS         1 TEMP              0 ****  ****    0 ROOT
