@<TRIPOS>MOLECULE
HNT
   27    28     1     0     0
SMALL
No Charge or Current Charge


@<TRIPOS>ATOM
      1 C1           1.8290    -1.3080     0.0700 c6         1 HNT      -0.037100
      2 C2           2.7970    -0.1510    -0.2810 c6         1 HNT       0.168500
      3 O2          -4.6750    -0.6300    -0.0060 o          1 HNT      -0.401500
      4 C4           1.0780     1.5800    -0.0010 c6         1 HNT       0.204100
      5 C5          -1.3590     0.8540     0.0060 ca         1 HNT      -0.044000
      6 C6          -2.3750    -0.1310     0.0080 ca         1 HNT      -0.181200
      7 C7          -2.0070    -1.4960     0.0260 ca         1 HNT      -0.044000
      8 C8          -0.6510    -1.8630     0.0400 ca         1 HNT      -0.126000
      9 C22          4.2910    -0.5090     0.0200 c3         1 HNT       0.158600
     10 C8A          0.3560    -0.8830     0.0330 ca         1 HNT      -0.015300
     11 N1          -3.8210     0.2670    -0.0080 no         1 HNT       0.695200
     12 O3          -4.0970     1.4740    -0.0240 o          1 HNT      -0.401500
     13 C4A          0.0000     0.4860     0.0220 ca         1 HNT      -0.086300
     14 N41          2.3960     1.0770     0.4460 n7         1 HNT      -0.856400
     15 H11          1.9960    -2.1460    -0.6200 hc         1 HNT       0.062200
     16 H12          2.0580    -1.6850     1.0760 hc         1 HNT       0.062200
     17 H2           2.7220     0.0440    -1.3620 h1         1 HNT       0.041700
     18 H41A         1.1620     1.9680    -1.0270 h1         1 HNT       0.048200
     19 H42          0.7690     2.4170     0.6440 h1         1 HNT       0.048200
     20 H5          -1.6170     1.9120    -0.0110 ha         1 HNT       0.149000
     21 H7          -2.7640    -2.2790     0.0310 ha         1 HNT       0.151000
     22 H8          -0.3830    -2.9170     0.0580 ha         1 HNT       0.125000
     23 H22          6.0940     0.2700    -0.0600 ho         1 HNT       0.451000
     24 H221         4.5520    -1.4070    -0.5570 h1         1 HNT       0.030200
     25 H222         4.3810    -0.7640     1.0840 h1         1 HNT       0.030200
     26 H41          3.1110     1.7950     0.2620 hn         1 HNT       0.435000
     27 O22          5.1900     0.5680    -0.3070 oh         1 HNT      -0.668000
@<TRIPOS>BOND
     1     1     2 1   
     2     1    10 1   
     3     1    15 1   
     4     1    16 1   
     5     2     9 1   
     6     2    14 1   
     7     2    17 1   
     8     3    11 1   
     9     4    13 1   
    10     4    14 1   
    11     4    18 1   
    12     4    19 1   
    13     5     6 ar  
    14     5    13 ar  
    15     5    20 1   
    16     6     7 ar  
    17     6    11 1   
    18     7     8 ar  
    19     7    21 1   
    20     8    10 ar  
    21     8    22 1   
    22     9    24 1   
    23     9    25 1   
    24     9    27 1   
    25    10    13 ar  
    26    11    12 1   
    27    14    26 1   
    28    23    27 1   
@<TRIPOS>SUBSTRUCTURE
     1 HNT         1 TEMP              0 ****  ****    0 ROOT
