@<TRIPOS>MOLECULE
HNT
   27    28     1     0     0
SMALL
abcg2


@<TRIPOS>ATOM
      1 C1           1.8240    -1.2820     0.0570 c6         1 HNT      -0.037100
      2 C2           2.7610    -0.1380    -0.3040 c6         1 HNT       0.168500
      3 O2          -4.5220    -0.6160    -0.0150 o          1 HNT      -0.401500
      4 C4           1.0900     1.5500    -0.0040 c6         1 HNT       0.204100
      5 C5          -1.3110     0.8460     0.0050 ca         1 HNT      -0.044000
      6 C6          -2.2880    -0.1350     0.0060 ca         1 HNT      -0.181200
      7 C7          -1.9600    -1.4850     0.0260 ca         1 HNT      -0.044000
      8 C8          -0.6250    -1.8330     0.0410 ca         1 HNT      -0.126000
      9 C22          4.1910    -0.5180     0.0210 c3         1 HNT       0.158600
     10 C8A          0.3810    -0.8670     0.0390 ca         1 HNT      -0.015300
     11 N1          -3.6850     0.2570    -0.0110 no         1 HNT       0.695200
     12 O3          -3.9480     1.4380    -0.0230 o          1 HNT      -0.401500
     13 C4A          0.0290     0.4840     0.0260 ca         1 HNT      -0.086300
     14 N41          2.3580     1.0300     0.4590 n7         1 HNT      -0.856400
     15 H11          1.9720    -2.1210    -0.6270 hc         1 HNT       0.062200
     16 H12          2.0690    -1.6510     1.0600 hc         1 HNT       0.062200
     17 H2           2.6890     0.0390    -1.3920 h1         1 HNT       0.041700
     18 H41A         1.1410     1.9510    -1.0290 h1         1 HNT       0.048200
     19 H42          0.7880     2.3820     0.6360 h1         1 HNT       0.048200
     20 H5          -1.5780     1.8940    -0.0080 ha         1 HNT       0.149000
     21 H7          -2.7220    -2.2510     0.0270 ha         1 HNT       0.151000
     22 H8          -0.3550    -2.8820     0.0510 ha         1 HNT       0.125000
     23 H22          5.9310     0.3370    -0.0720 ho         1 HNT       0.451000
     24 H221         4.4290    -1.4630    -0.4850 h1         1 HNT       0.030200
     25 H222         4.2710    -0.6990     1.1020 h1         1 HNT       0.030200
     26 H41          3.0590     1.7540     0.3710 hn         1 HNT       0.435000
     27 O22          5.0460     0.5230    -0.3960 oh         1 HNT      -0.668000
@<TRIPOS>BOND
     1     1     2 1   
     2     1    10 1   
     3     1    15 1   
     4     1    16 1   
     5     2     9 1   
     6     2    14 1   
     7     2    17 1   
     8     3    11 1   
     9     4    13 1   
    10     4    14 1   
    11     4    18 1   
    12     4    19 1   
    13     5     6 ar  
    14     5    13 ar  
    15     5    20 1   
    16     6     7 ar  
    17     6    11 1   
    18     7     8 ar  
    19     7    21 1   
    20     8    10 ar  
    21     8    22 1   
    22     9    24 1   
    23     9    25 1   
    24     9    27 1   
    25    10    13 ar  
    26    11    12 1   
    27    14    26 1   
    28    23    27 1   
@<TRIPOS>SUBSTRUCTURE
     1 HNT         1 TEMP              0 ****  ****    0 ROOT
