@<TRIPOS>MOLECULE
HNU
   33    32     1     0     0
SMALL
No Charge or Current Charge


@<TRIPOS>ATOM
      1 C4         -27.0370    29.5880     8.2300 c          1 HNU       0.598100
      2 C5         -28.4260    30.2480     8.4880 c3         1 HNU       0.044700
      3 C6         -29.0580    29.8250     9.8460 c3         1 HNU      -0.077400
      4 C7         -28.2700    30.2350    11.1230 c3         1 HNU      -0.165400
      5 C8         -27.4320    29.0850    11.6980 c          1 HNU       0.610100
      6 C10        -30.6240    32.0340     7.4310 c3         1 HNU      -0.180100
      7 N1         -25.9480    30.3450     8.6050 ns         1 HNU      -0.486900
      8 N2         -28.0560    28.2880    12.5900 nt         1 HNU      -0.599000
      9 C3         -24.5630    29.9230     8.4570 c3         1 HNU       0.133200
     10 N3         -29.3490    29.8860     7.3850 ns         1 HNU      -0.522900
     11 C1         -23.5490    31.3880    10.2620 c2         1 HNU      -0.291000
     12 C2         -23.6550    31.0130     8.9760 c2         1 HNU      -0.256200
     13 O1         -26.9080    28.4920     7.6960 o          1 HNU      -0.601100
     14 O2         -26.2770    28.8670    11.3820 o          1 HNU      -0.611100
     15 O3         -31.2690    30.0520     6.2280 o          1 HNU      -0.592100
     16 H1         -28.2720    31.3340     8.4860 h1         1 HNU       0.065700
     17 H2         -30.0550    30.2770     9.9130 hc         1 HNU       0.061200
     18 H3         -29.2270    28.7400     9.8480 hc         1 HNU       0.061200
     19 H4         -27.6290    31.0990    10.9110 hc         1 HNU       0.063200
     20 H5         -29.0240    30.5100    11.8710 hc         1 HNU       0.063200
     21 H6         -31.5140    32.5090     7.0040 hc         1 HNU       0.060033
     22 H7         -30.6320    32.0850     8.5250 hc         1 HNU       0.060033
     23 H8         -29.7150    32.5890     7.1730 hc         1 HNU       0.060033
     24 H9         -26.1280    31.2420     9.0360 hn         1 HNU       0.309500
     25 H10        -27.5520    27.5140    12.9960 hn         1 HNU       0.314500
     26 H11        -29.0150    28.4680    12.8460 hn         1 HNU       0.314500
     27 H12        -24.3560    29.7230     7.3970 h1         1 HNU       0.061700
     28 H13        -24.4060    28.9940     9.0240 h1         1 HNU       0.061700
     29 H14        -29.2520    28.9600     6.9840 hn         1 HNU       0.326500
     30 H15        -24.1340    30.9080    11.0490 ha         1 HNU       0.169500
     31 H16        -22.8710    32.1850    10.5730 ha         1 HNU       0.169500
     32 H17        -23.0570    31.5040     8.2040 ha         1 HNU       0.171000
     33 C9         -30.4670    30.5810     6.9800 c          1 HNU       0.607100
@<TRIPOS>BOND
     1     1     2 1   
     2     1     7 1   
     3     1    13 2   
     4     2     3 1   
     5     2    10 1   
     6     2    16 1   
     7     3     4 1   
     8     3    17 1   
     9     3    18 1   
    10     4     5 1   
    11     4    19 1   
    12     4    20 1   
    13     5     8 1   
    14     5    14 2   
    15     6    21 1   
    16     6    22 1   
    17     6    23 1   
    18     6    33 1   
    19     7     9 1   
    20     7    24 1   
    21     8    25 1   
    22     8    26 1   
    23     9    12 1   
    24     9    27 1   
    25     9    28 1   
    26    10    29 1   
    27    10    33 1   
    28    11    12 2   
    29    11    30 1   
    30    11    31 1   
    31    12    32 1   
    32    15    33 2   
@<TRIPOS>SUBSTRUCTURE
     1 HNU         1 TEMP              0 ****  ****    0 ROOT
