@<TRIPOS>MOLECULE
HNU
   33    32     1     0     0
SMALL
bcc


@<TRIPOS>ATOM
      1 C4         -27.1650    29.5580     8.8230 c          1 HNU       0.665100
      2 C5         -28.5780    30.1230     9.0110 c3         1 HNU       0.044700
      3 C6         -29.3270    29.5130    10.1920 c3         1 HNU      -0.077400
      4 C7         -28.8430    29.9700    11.5700 c3         1 HNU      -0.165400
      5 C8         -27.4790    29.4410    11.9630 c          1 HNU       0.677100
      6 C10        -29.7210    32.2080     7.2620 c3         1 HNU      -0.180100
      7 N1         -26.2710    30.4350     8.3400 ns         1 HNU      -0.553900
      8 N2         -27.4760    28.1860    12.4410 nt         1 HNU      -0.666000
      9 C3         -24.9380    30.0940     7.9140 c3         1 HNU       0.133200
     10 N3         -29.2860    29.8570     7.7740 ns         1 HNU      -0.589900
     11 C1         -23.9970    31.5290     9.7640 c2         1 HNU      -0.191000
     12 C2         -23.8460    30.7730     8.6850 c2         1 HNU      -0.206200
     13 O1         -26.9290    28.3770     9.0230 o          1 HNU      -0.601100
     14 O2         -26.4620    30.1100    11.8520 o          1 HNU      -0.611100
     15 O3         -30.4070    30.3660     5.9030 o          1 HNU      -0.592100
     16 H1         -28.5260    31.2030     9.1570 h1         1 HNU       0.065700
     17 H2         -30.3700    29.8180    10.0930 hc         1 HNU       0.061200
     18 H3         -29.3130    28.4230    10.1190 hc         1 HNU       0.061200
     19 H4         -28.8070    31.0610    11.6030 hc         1 HNU       0.063200
     20 H5         -29.5820    29.6510    12.3070 hc         1 HNU       0.063200
     21 H6         -30.2340    32.7960     6.5060 hc         1 HNU       0.060033
     22 H7         -30.1670    32.4280     8.2330 hc         1 HNU       0.060033
     23 H8         -28.6800    32.5340     7.3010 hc         1 HNU       0.060033
     24 H9         -26.5650    31.3890     8.1960 hn         1 HNU       0.309500
     25 H10        -26.6070    27.7280    12.6630 hn         1 HNU       0.314500
     26 H11        -28.3160    27.6370    12.5040 hn         1 HNU       0.314500
     27 H12        -24.8240    30.3390     6.8540 h1         1 HNU       0.061700
     28 H13        -24.8180    29.0130     7.9850 h1         1 HNU       0.061700
     29 H14        -29.3960    28.8830     7.5240 hn         1 HNU       0.326500
     30 H15        -24.9650    31.7150    10.2100 ha         1 HNU       0.119500
     31 H16        -23.1420    31.9810    10.2490 ha         1 HNU       0.119500
     32 H17        -22.8520    30.6080     8.2820 ha         1 HNU       0.121000
     33 C9         -29.8370    30.7450     6.9150 c          1 HNU       0.674100
@<TRIPOS>BOND
     1     1     2 1   
     2     1     7 1   
     3     1    13 2   
     4     2     3 1   
     5     2    10 1   
     6     2    16 1   
     7     3     4 1   
     8     3    17 1   
     9     3    18 1   
    10     4     5 1   
    11     4    19 1   
    12     4    20 1   
    13     5     8 1   
    14     5    14 2   
    15     6    21 1   
    16     6    22 1   
    17     6    23 1   
    18     6    33 1   
    19     7     9 1   
    20     7    24 1   
    21     8    25 1   
    22     8    26 1   
    23     9    12 1   
    24     9    27 1   
    25     9    28 1   
    26    10    29 1   
    27    10    33 1   
    28    11    12 2   
    29    11    30 1   
    30    11    31 1   
    31    12    32 1   
    32    15    33 2   
@<TRIPOS>SUBSTRUCTURE
     1 HNU         1 TEMP              0 ****  ****    0 ROOT
