@<TRIPOS>MOLECULE
HNV
   43    44     1     0     0
SMALL
No Charge or Current Charge


@<TRIPOS>ATOM
      1 O6           3.2580     3.4050     0.8980 oh         1 HNV      -0.716000
      2 C6           3.9020     2.1940     1.3480 c3         1 HNV       0.169600
      3 C5           3.2890     0.8950     0.7270 c6         1 HNV       0.169300
      4 O5           3.3430     1.0100    -0.7240 os         1 HNV      -0.454000
      5 C4           4.0320    -0.3950     1.1950 c6         1 HNV       0.147300
      6 O4           3.9480    -0.5840     2.6230 oh         1 HNV      -0.724000
      7 C3           3.4390    -1.6400     0.4630 c6         1 HNV       0.142300
      8 O3           4.1760    -2.8240     0.8210 oh         1 HNV      -0.653000
      9 C2           3.4780    -1.4390    -1.0820 c6         1 HNV       0.125300
     10 O2           4.8620    -1.4610    -1.5240 oh         1 HNV      -0.690000
     11 C1           2.7470    -0.0950    -1.4400 c6         1 HNV       0.350300
     12 O1           1.3450    -0.1670    -1.1190 os         1 HNV      -0.481000
     13 C7           0.5400     0.9440    -1.5470 c3         1 HNV       0.253700
     14 C8          -0.8460     0.6950    -1.1370 c1         1 HNV      -0.139100
     15 C9          -1.9930     0.5200    -0.7770 cg         1 HNV      -0.088000
     16 C10         -3.3460     0.3030    -0.3550 ca         1 HNV      -0.018000
     17 C15         -4.0490     1.3190     0.3160 ca         1 HNV      -0.047500
     18 C14         -5.3760     1.1030     0.7280 ca         1 HNV      -0.178000
     19 C13         -6.0100    -0.1240     0.4750 ca         1 HNV       0.152100
     20 O7          -7.3120    -0.2770     0.9030 os         1 HNV      -0.340100
     21 C16         -8.0510    -1.4940     0.6940 c3         1 HNV       0.148900
     22 C12         -5.3040    -1.1450    -0.2000 ca         1 HNV      -0.178000
     23 C11         -3.9760    -0.9290    -0.6120 ca         1 HNV      -0.047500
     24 H6           3.7570     4.1590     1.2910 ho         1 HNV       0.502000
     25 H61C         4.9710     2.2190     1.0940 h1         1 HNV       0.037700
     26 H62C         3.8310     2.1190     2.4410 h1         1 HNV       0.037700
     27 H5           2.2370     0.8390     1.0440 h1         1 HNV       0.068700
     28 H4           5.0880    -0.2950     0.8980 h1         1 HNV       0.069700
     29 H1           2.8520     0.0800    -2.5210 h2         1 HNV       0.066700
     30 HA           4.1520    -1.5400     2.7670 ho         1 HNV       0.523000
     31 H3           2.3870    -1.7500     0.7680 h1         1 HNV       0.062700
     32 HB           4.8910    -2.8770     0.1430 ho         1 HNV       0.448000
     33 H2           2.9240    -2.2640    -1.5540 h1         1 HNV       0.048700
     34 HC           4.8620    -1.3580    -2.5050 ho         1 HNV       0.503000
     35 H71C         0.8830     1.8820    -1.0900 h1         1 HNV       0.055200
     36 H72C         0.5770     1.0580    -2.6390 h1         1 HNV       0.055200
     37 H15         -3.5690     2.2750     0.5190 ha         1 HNV       0.120500
     38 H11         -3.4380    -1.7200    -1.1310 ha         1 HNV       0.120500
     39 H14         -5.9160     1.8910     1.2470 ha         1 HNV       0.124500
     40 H12         -5.7650    -2.1060    -0.4110 ha         1 HNV       0.124500
     41 H161        -7.5550    -2.3410     1.1860 h1         1 HNV       0.042033
     42 H162        -9.0610    -1.4030     1.1110 h1         1 HNV       0.042033
     43 H163        -8.1440    -1.7150    -0.3770 h1         1 HNV       0.042033
@<TRIPOS>BOND
     1     1     2 1   
     2     1    24 1   
     3     2     3 1   
     4     2    25 1   
     5     2    26 1   
     6     3     4 1   
     7     3     5 1   
     8     3    27 1   
     9     4    11 1   
    10     5     6 1   
    11     5     7 1   
    12     5    28 1   
    13     6    30 1   
    14     7     8 1   
    15     7     9 1   
    16     7    31 1   
    17     8    32 1   
    18     9    10 1   
    19     9    11 1   
    20     9    33 1   
    21    10    34 1   
    22    11    12 1   
    23    11    29 1   
    24    12    13 1   
    25    13    14 1   
    26    13    35 1   
    27    13    36 1   
    28    14    15 3   
    29    15    16 1   
    30    16    17 ar  
    31    16    23 ar  
    32    17    18 ar  
    33    17    37 1   
    34    18    19 ar  
    35    18    39 1   
    36    19    20 1   
    37    19    22 ar  
    38    20    21 1   
    39    21    41 1   
    40    21    42 1   
    41    21    43 1   
    42    22    23 ar  
    43    22    40 1   
    44    23    38 1   
@<TRIPOS>SUBSTRUCTURE
     1 HNV         1 TEMP              0 ****  ****    0 ROOT
