@<TRIPOS>MOLECULE
HNV
   43    44     1     0     0
SMALL
abcg2


@<TRIPOS>ATOM
      1 O6           3.1840     3.3500     0.6870 oh         1 HNV      -0.716000
      2 C6           4.0130     2.2820     1.0830 c3         1 HNV       0.169600
      3 C5           3.3750     0.9850     0.6370 c6         1 HNV       0.169300
      4 O5           3.3210     1.0030    -0.7800 os         1 HNV      -0.454000
      5 C4           4.1590    -0.2390     1.1130 c6         1 HNV       0.147300
      6 O4           4.1100    -0.2620     2.5190 oh         1 HNV      -0.724000
      7 C3           3.5350    -1.5000     0.5240 c6         1 HNV       0.142300
      8 O3           4.3180    -2.5930     0.9450 oh         1 HNV      -0.653000
      9 C2           3.4300    -1.4010    -0.9960 c6         1 HNV       0.125300
     10 O2           4.7260    -1.4070    -1.5320 oh         1 HNV      -0.690000
     11 C1           2.7070    -0.1020    -1.3670 c6         1 HNV       0.350300
     12 O1           1.3730    -0.2420    -0.9830 os         1 HNV      -0.481000
     13 C7           0.5440     0.8310    -1.3950 c3         1 HNV       0.253700
     14 C8          -0.8280     0.5450    -1.0060 c1         1 HNV      -0.139100
     15 C9          -1.9700     0.3550    -0.6700 cg         1 HNV      -0.088000
     16 C10         -3.3180     0.1410    -0.2620 ca         1 HNV      -0.018000
     17 C15         -3.8760     0.9010     0.7750 ca         1 HNV      -0.047500
     18 C14         -5.1810     0.7000     1.1720 ca         1 HNV      -0.178000
     19 C13         -5.9690    -0.2700     0.5420 ca         1 HNV       0.152100
     20 O7          -7.2260    -0.3930     0.9930 os         1 HNV      -0.340100
     21 C16         -8.0750    -1.3580     0.3990 c3         1 HNV       0.148900
     22 C12         -5.4250    -1.0330    -0.4920 ca         1 HNV      -0.178000
     23 C11         -4.1110    -0.8220    -0.8850 ca         1 HNV      -0.047500
     24 H6           3.5300     4.1530     1.0850 ho         1 HNV       0.502000
     25 H61C         5.0180     2.3610     0.6460 h1         1 HNV       0.037700
     26 H62C         4.1350     2.2480     2.1700 h1         1 HNV       0.037700
     27 H5           2.3620     0.9320     1.0600 h1         1 HNV       0.068700
     28 H4           5.1970    -0.1540     0.7580 h1         1 HNV       0.069700
     29 H1           2.7770     0.0750    -2.4500 h2         1 HNV       0.066700
     30 HA           4.5100    -1.0870     2.8150 ho         1 HNV       0.523000
     31 H3           2.5130    -1.5840     0.9210 h1         1 HNV       0.062700
     32 HB           3.7860    -3.3920     0.9030 ho         1 HNV       0.448000
     33 H2           2.8390    -2.2490    -1.3750 h1         1 HNV       0.048700
     34 HC           4.6630    -1.4950    -2.4870 ho         1 HNV       0.503000
     35 H71C         0.8380     1.7720    -0.9340 h1         1 HNV       0.055200
     36 H72C         0.6080     0.9700    -2.4810 h1         1 HNV       0.055200
     37 H15         -3.2770     1.6550     1.2680 ha         1 HNV       0.120500
     38 H11         -3.6990    -1.3950    -1.7010 ha         1 HNV       0.120500
     39 H14         -5.6050     1.2930     1.9730 ha         1 HNV       0.124500
     40 H12         -6.0080    -1.7860    -1.0020 ha         1 HNV       0.124500
     41 H161        -7.6780    -2.3710     0.5060 h1         1 HNV       0.042033
     42 H162        -9.0260    -1.2960     0.9220 h1         1 HNV       0.042033
     43 H163        -8.2410    -1.1540    -0.6620 h1         1 HNV       0.042033
@<TRIPOS>BOND
     1     1     2 1   
     2     1    24 1   
     3     2     3 1   
     4     2    25 1   
     5     2    26 1   
     6     3     4 1   
     7     3     5 1   
     8     3    27 1   
     9     4    11 1   
    10     5     6 1   
    11     5     7 1   
    12     5    28 1   
    13     6    30 1   
    14     7     8 1   
    15     7     9 1   
    16     7    31 1   
    17     8    32 1   
    18     9    10 1   
    19     9    11 1   
    20     9    33 1   
    21    10    34 1   
    22    11    12 1   
    23    11    29 1   
    24    12    13 1   
    25    13    14 1   
    26    13    35 1   
    27    13    36 1   
    28    14    15 3   
    29    15    16 1   
    30    16    17 ar  
    31    16    23 ar  
    32    17    18 ar  
    33    17    37 1   
    34    18    19 ar  
    35    18    39 1   
    36    19    20 1   
    37    19    22 ar  
    38    20    21 1   
    39    21    41 1   
    40    21    42 1   
    41    21    43 1   
    42    22    23 ar  
    43    22    40 1   
    44    23    38 1   
@<TRIPOS>SUBSTRUCTURE
     1 HNV         1 TEMP              0 ****  ****    0 ROOT
