@<TRIPOS>MOLECULE
HNW
   40    41     1     0     0
SMALL
bcc


@<TRIPOS>ATOM
      1 O6          -1.2040     3.2660     0.2240 oh         1 HNW      -0.588800
      2 C6          -2.5030     2.7330     0.1290 c3         1 HNW       0.146400
      3 C5          -2.4040     1.2510    -0.1660 c6         1 HNW       0.149100
      4 O5          -1.7860     0.6440     0.9600 os         1 HNW      -0.398600
      5 C4          -3.7770     0.6310    -0.4260 c6         1 HNW       0.123100
      6 O4          -4.2660     1.1810    -1.6260 oh         1 HNW      -0.599800
      7 C3          -3.6520    -0.8860    -0.5300 c6         1 HNW       0.120100
      8 O3          -4.9480    -1.4070    -0.6980 oh         1 HNW      -0.588800
      9 C2          -2.9520    -1.4570     0.7000 c6         1 HNW       0.101100
     10 O2          -3.7760    -1.2530     1.8180 oh         1 HNW      -0.566800
     11 O7           7.9790    -0.4400     0.7110 oh         1 HNW      -0.585800
     12 C7           7.3460     0.2170    -0.3640 c3         1 HNW       0.231500
     13 C8           5.9100    -0.0240    -0.2990 c1         1 HNW      -0.137100
     14 C10          3.3120    -0.4260    -0.2100 ca         1 HNW      -0.009000
     15 C15          2.6680    -1.1750    -1.2010 ca         1 HNW      -0.071500
     16 C14          1.3050    -1.3830    -1.1530 ca         1 HNW      -0.181500
     17 C13          0.5460    -0.8490    -0.1110 ca         1 HNW       0.152100
     18 O1          -0.7750    -1.1280    -0.1500 os         1 HNW      -0.363900
     19 C1          -1.6200    -0.7290     0.9060 c6         1 HNW       0.312900
     20 C12          1.1710    -0.0910     0.8780 ca         1 HNW      -0.181500
     21 C11          2.5410     0.1070     0.8230 ca         1 HNW      -0.071500
     22 H6          -1.2830     4.2200     0.3180 ho         1 HNW       0.404000
     23 H61C        -3.0740     2.8750     1.0570 h1         1 HNW       0.036200
     24 H62C        -3.0760     3.2040    -0.6760 h1         1 HNW       0.036200
     25 H5          -1.7820     1.1150    -1.0620 h1         1 HNW       0.072700
     26 H4          -4.4410     0.8770     0.4160 h1         1 HNW       0.069700
     27 H1          -1.1790    -1.0180     1.8680 h2         1 HNW       0.078700
     28 HA          -5.1170     0.7720    -1.8130 ho         1 HNW       0.423000
     29 H3          -3.0290    -1.1120    -1.4060 h1         1 HNW       0.061700
     30 HB          -4.8850    -2.2660    -1.1260 ho         1 HNW       0.409000
     31 H2          -2.7470    -2.5250     0.5420 h1         1 HNW       0.050700
     32 HC          -3.4480    -1.7900     2.5450 ho         1 HNW       0.406000
     33 HD           8.9200    -0.2440     0.6560 ho         1 HNW       0.405000
     34 H71C         7.5210     1.3000    -0.3410 h1         1 HNW       0.033700
     35 H72C         7.7140    -0.1370    -1.3360 h1         1 HNW       0.033700
     36 H11          3.0180     0.6950     1.5960 ha         1 HNW       0.139000
     37 H14          0.8160    -1.9650    -1.9230 ha         1 HNW       0.148500
     38 H12          0.6180     0.3620     1.6870 ha         1 HNW       0.148500
     39 H15          3.2430    -1.5990    -2.0140 ha         1 HNW       0.139000
     40 C9           4.7200    -0.2080    -0.2590 cg         1 HNW      -0.088000
@<TRIPOS>BOND
     1     1     2 1   
     2     1    22 1   
     3     2     3 1   
     4     2    23 1   
     5     2    24 1   
     6     3     4 1   
     7     3     5 1   
     8     3    25 1   
     9     4    19 1   
    10     5     6 1   
    11     5     7 1   
    12     5    26 1   
    13     6    28 1   
    14     7     8 1   
    15     7     9 1   
    16     7    29 1   
    17     8    30 1   
    18     9    10 1   
    19     9    19 1   
    20     9    31 1   
    21    10    32 1   
    22    11    12 1   
    23    11    33 1   
    24    12    13 1   
    25    12    34 1   
    26    12    35 1   
    27    13    40 3   
    28    14    15 ar  
    29    14    21 ar  
    30    14    40 1   
    31    15    16 ar  
    32    15    39 1   
    33    16    17 ar  
    34    16    37 1   
    35    17    18 1   
    36    17    20 ar  
    37    18    19 1   
    38    19    27 1   
    39    20    21 ar  
    40    20    38 1   
    41    21    36 1   
@<TRIPOS>SUBSTRUCTURE
     1 HNW         1 TEMP              0 ****  ****    0 ROOT
