@<TRIPOS>MOLECULE
HNW
   40    41     1     0     0
SMALL
No Charge or Current Charge


@<TRIPOS>ATOM
      1 O6          -0.9660     3.2360     0.3950 oh         1 HNW      -0.711000
      2 C6          -2.2800     2.7350     0.0700 c3         1 HNW       0.169600
      3 C5          -2.3150     1.1920    -0.1890 c6         1 HNW       0.172300
      4 O5          -1.7710     0.5190     0.9820 os         1 HNW      -0.445000
      5 C4          -3.7570     0.6750    -0.4860 c6         1 HNW       0.146300
      6 O4          -4.3100     1.2660    -1.6810 oh         1 HNW      -0.722000
      7 C3          -3.7480    -0.8800    -0.6220 c6         1 HNW       0.143300
      8 O3          -5.0890    -1.3700    -0.8020 oh         1 HNW      -0.651000
      9 C2          -3.1080    -1.5380     0.6380 c6         1 HNW       0.124300
     10 O2          -3.9930    -1.3400     1.7730 oh         1 HNW      -0.689000
     11 O7           7.9520     0.2860     0.9240 oh         1 HNW      -0.648000
     12 C7           7.3660     0.3090    -0.3810 c3         1 HNW       0.254700
     13 C8           5.9300     0.0260    -0.2980 c1         1 HNW      -0.137100
     14 C10          3.3270    -0.4670    -0.2410 ca         1 HNW      -0.009000
     15 C15          2.6900    -1.0260    -1.3630 ca         1 HNW      -0.053500
     16 C14          1.3080    -1.2820    -1.3320 ca         1 HNW      -0.163500
     17 C13          0.5510    -0.9820    -0.1880 ca         1 HNW       0.152100
     18 O1          -0.7990    -1.2670    -0.2280 os         1 HNW      -0.387100
     19 C1          -1.6810    -0.9220     0.8630 c6         1 HNW       0.359300
     20 C12          1.1930    -0.4240     0.9410 ca         1 HNW      -0.163500
     21 C11          2.5760    -0.1670     0.9100 ca         1 HNW      -0.053500
     22 H6          -1.0660     4.1940     0.6010 ho         1 HNW       0.503000
     23 H61C        -2.9790     2.9580     0.8870 h1         1 HNW       0.036200
     24 H62C        -2.6590     3.2420    -0.8280 h1         1 HNW       0.036200
     25 H5          -1.6700     0.9830    -1.0550 h1         1 HNW       0.072700
     26 H4          -4.3870     0.9380     0.3780 h1         1 HNW       0.069700
     27 H1          -1.2720    -1.3400     1.7950 h2         1 HNW       0.078700
     28 HA          -5.0520     0.6680    -1.9430 ho         1 HNW       0.522000
     29 H3          -3.1350    -1.1450    -1.4970 h1         1 HNW       0.061700
     30 HB          -5.4120    -1.5360     0.1150 ho         1 HNW       0.448000
     31 H2          -2.9870    -2.6140     0.4430 h1         1 HNW       0.050700
     32 HC          -3.6080    -1.8240     2.5410 ho         1 HNW       0.505000
     33 HD           8.9080     0.4810     0.8030 ho         1 HNW       0.444000
     34 H71C         7.5060     1.2930    -0.8490 h1         1 HNW       0.033700
     35 H72C         7.8380    -0.4430    -1.0280 h1         1 HNW       0.033700
     36 H11          3.0620     0.2650     1.7820 ha         1 HNW       0.121000
     37 H14          0.8190    -1.7150    -2.2010 ha         1 HNW       0.130500
     38 H12          0.6420    -0.1800     1.8440 ha         1 HNW       0.130500
     39 H15          3.2630    -1.2620    -2.2580 ha         1 HNW       0.121000
     40 C9           4.7370    -0.2040    -0.2690 cg         1 HNW      -0.088000
@<TRIPOS>BOND
     1     1     2 1   
     2     1    22 1   
     3     2     3 1   
     4     2    23 1   
     5     2    24 1   
     6     3     4 1   
     7     3     5 1   
     8     3    25 1   
     9     4    19 1   
    10     5     6 1   
    11     5     7 1   
    12     5    26 1   
    13     6    28 1   
    14     7     8 1   
    15     7     9 1   
    16     7    29 1   
    17     8    30 1   
    18     9    10 1   
    19     9    19 1   
    20     9    31 1   
    21    10    32 1   
    22    11    12 1   
    23    11    33 1   
    24    12    13 1   
    25    12    34 1   
    26    12    35 1   
    27    13    40 3   
    28    14    15 ar  
    29    14    21 ar  
    30    14    40 1   
    31    15    16 ar  
    32    15    39 1   
    33    16    17 ar  
    34    16    37 1   
    35    17    18 1   
    36    17    20 ar  
    37    18    19 1   
    38    19    27 1   
    39    20    21 ar  
    40    20    38 1   
    41    21    36 1   
@<TRIPOS>SUBSTRUCTURE
     1 HNW         1 TEMP              0 ****  ****    0 ROOT
