@<TRIPOS>MOLECULE
HNX
   46    49     1     0     0
SMALL
No Charge or Current Charge


@<TRIPOS>ATOM
      1 C10        146.3390   141.3570   133.3190 c6         1 HNX      -0.027100
      2 N12        146.8900   141.5010   136.2690 n8         1 HNX      -0.992200
      3 C13        144.3810   135.1620   134.7510 c3         1 HNX       0.207900
      4 C15        143.5210   132.8570   135.5000 ca         1 HNX      -0.029000
      5 C17        143.9550   130.8500   134.1660 ca         1 HNX      -0.108000
      6 C20        142.9370   133.4320   136.6560 ca         1 HNX      -0.097000
      7 C21        142.2430   132.6330   137.5810 ca         1 HNX      -0.110000
      8 C22        142.1210   131.2520   137.3700 ca         1 HNX      -0.111000
      9 C24        144.6350   142.7140   136.6770 c          1 HNX       0.731000
     10 C01        144.9570   138.0120   134.6410 ca         1 HNX      -0.202000
     11 C02        145.2580   139.3870   134.5550 ca         1 HNX      -0.001300
     12 C03        145.9890   139.8740   133.4470 ca         1 HNX      -0.106300
     13 C04        146.4240   138.9800   132.4520 ca         1 HNX      -0.086000
     14 C05        146.1270   137.6110   132.5480 ca         1 HNX      -0.166000
     15 C06        145.3930   137.1210   133.6380 ca         1 HNX       0.124100
     16 C07        144.7470   140.3310   135.6540 c6         1 HNX      -0.021100
     17 C08        145.4830   141.7090   135.7520 c6         1 HNX       0.043200
     18 C09        145.5550   142.2700   134.2960 c6         1 HNX      -0.098400
     19 C14        144.2290   133.6440   134.5500 ca         1 HNX      -0.066300
     20 C16        143.3900   131.4590   135.2990 ca         1 HNX      -0.037000
     21 C18        144.6520   131.6220   133.2280 ca         1 HNX      -0.108000
     22 C19        144.7890   133.0060   133.4170 ca         1 HNX      -0.086000
     23 C23        142.6930   130.6660   136.2310 ca         1 HNX      -0.103000
     24 O11        145.1270   135.7680   133.6770 os         1 HNX      -0.360100
     25 O25        144.0640   142.2380   137.6530 o          1 HNX      -0.724000
     26 O26        144.9890   143.8890   136.6850 o          1 HNX      -0.724000
     27 H1         147.4180   141.4820   133.4850 hc         1 HNX       0.027200
     28 H2         146.1550   141.6940   132.2900 hc         1 HNX       0.027200
     29 H3         147.4380   141.0580   135.5250 hn         1 HNX       0.383000
     30 H4         147.3260   142.4220   136.3850 hn         1 HNX       0.383000
     31 H6         143.3810   135.6100   134.8090 h1         1 HNX       0.047200
     32 H7         144.8920   135.3390   135.7060 h1         1 HNX       0.047200
     33 H10        141.7990   133.0870   138.4640 ha         1 HNX       0.113000
     34 H11        141.5830   130.6360   138.0870 ha         1 HNX       0.108000
     35 H12        144.3840   137.6580   135.4920 ha         1 HNX       0.112000
     36 H14        146.9950   139.3470   131.6010 ha         1 HNX       0.098000
     37 H15        146.4650   136.9280   131.7740 ha         1 HNX       0.108000
     38 H16        144.8000   139.8210   136.6250 hc         1 HNX       0.067700
     39 H17        143.6780   140.5090   135.4730 hc         1 HNX       0.067700
     40 H19        146.0090   143.2710   134.2900 hc         1 HNX       0.048200
     41 H20        144.5330   142.4050   133.9140 hc         1 HNX       0.048200
     42 H21        145.0890   131.1480   132.3520 ha         1 HNX       0.108000
     43 H22        145.3360   133.5740   132.6690 ha         1 HNX       0.133000
     44 H23        142.5950   129.5950   136.0730 ha         1 HNX       0.106000
     45 H8         143.8550   129.7780   134.0100 ha         1 HNX       0.106000
     46 H9         143.0090   134.4970   136.8570 ha         1 HNX       0.120000
@<TRIPOS>BOND
     1     1    12 1   
     2     1    18 1   
     3     1    27 1   
     4     1    28 1   
     5     2    17 1   
     6     2    29 1   
     7     2    30 1   
     8     3    19 1   
     9     3    24 1   
    10     3    31 1   
    11     3    32 1   
    12     4     6 ar  
    13     4    19 ar  
    14     4    20 ar  
    15     5    20 ar  
    16     5    21 ar  
    17     5    45 1   
    18     6     7 ar  
    19     6    46 1   
    20     7     8 ar  
    21     7    33 1   
    22     8    23 ar  
    23     8    34 1   
    24     9    17 1   
    25     9    25 1   
    26     9    26 1   
    27    10    11 ar  
    28    10    15 ar  
    29    10    35 1   
    30    11    12 ar  
    31    11    16 1   
    32    12    13 ar  
    33    13    14 ar  
    34    13    36 1   
    35    14    15 ar  
    36    14    37 1   
    37    15    24 1   
    38    16    17 1   
    39    16    38 1   
    40    16    39 1   
    41    17    18 1   
    42    18    40 1   
    43    18    41 1   
    44    19    22 ar  
    45    20    23 ar  
    46    21    22 ar  
    47    21    42 1   
    48    22    43 1   
    49    23    44 1   
@<TRIPOS>SUBSTRUCTURE
     1 HNX         1 TEMP              0 ****  ****    0 ROOT
