@<TRIPOS>MOLECULE
HNX
   46    49     1     0     0
SMALL
abcg2


@<TRIPOS>ATOM
      1 C10        146.3620   141.2870   133.3970 c6         1 HNX      -0.027100
      2 N12        146.7580   141.1920   136.3670 n8         1 HNX      -0.992200
      3 C13        144.3210   135.2280   134.6390 c3         1 HNX       0.207900
      4 C15        143.5750   132.9780   135.4800 ca         1 HNX      -0.029000
      5 C17        144.0380   130.9450   134.1950 ca         1 HNX      -0.108000
      6 C20        143.0130   133.5730   136.6360 ca         1 HNX      -0.097000
      7 C21        142.3970   132.8130   137.5940 ca         1 HNX      -0.110000
      8 C22        142.3060   131.4150   137.4480 ca         1 HNX      -0.111000
      9 C24        144.7440   142.5640   136.6750 c          1 HNX       0.731000
     10 C01        144.8480   137.9900   134.5610 ca         1 HNX      -0.202000
     11 C02        145.1730   139.3490   134.5120 ca         1 HNX      -0.001300
     12 C03        145.9370   139.8420   133.4570 ca         1 HNX      -0.106300
     13 C04        146.3490   138.9510   132.4630 ca         1 HNX      -0.086000
     14 C05        146.0270   137.6100   132.5030 ca         1 HNX      -0.166000
     15 C06        145.2700   137.1180   133.5680 ca         1 HNX       0.124100
     16 C07        144.6550   140.2580   135.5970 c6         1 HNX      -0.021100
     17 C08        145.4730   141.5340   135.7650 c6         1 HNX       0.043200
     18 C09        145.6040   142.1800   134.3710 c6         1 HNX      -0.098400
     19 C14        144.2260   133.7380   134.4640 ca         1 HNX      -0.066300
     20 C16        143.4820   131.5680   135.3380 ca         1 HNX      -0.037000
     21 C18        144.6540   131.6950   133.2370 ca         1 HNX      -0.108000
     22 C19        144.7470   133.0960   133.3720 ca         1 HNX      -0.086000
     23 C23        142.8370   130.8100   136.3430 ca         1 HNX      -0.103000
     24 O11        145.0040   135.7920   133.5490 os         1 HNX      -0.360100
     25 O25        143.5020   142.6200   136.5800 o          1 HNX      -0.724000
     26 O26        145.4670   143.2900   137.3850 o          1 HNX      -0.724000
     27 H1         147.4370   141.3500   133.5990 hc         1 HNX       0.027200
     28 H2         146.2410   141.6650   132.3780 hc         1 HNX       0.027200
     29 H3         147.3350   140.6730   135.7150 hn         1 HNX       0.383000
     30 H4         147.2530   142.0500   136.5780 hn         1 HNX       0.383000
     31 H6         143.3140   135.6570   134.7260 h1         1 HNX       0.047200
     32 H7         144.8430   135.4560   135.5770 h1         1 HNX       0.047200
     33 H10        141.9760   133.2900   138.4700 ha         1 HNX       0.113000
     34 H11        141.8160   130.8250   138.2120 ha         1 HNX       0.108000
     35 H12        144.2560   137.6410   135.3990 ha         1 HNX       0.112000
     36 H14        146.9420   139.3220   131.6340 ha         1 HNX       0.098000
     37 H15        146.3590   136.9380   131.7210 ha         1 HNX       0.108000
     38 H16        144.6200   139.7120   136.5440 hc         1 HNX       0.067700
     39 H17        143.6240   140.5320   135.3630 hc         1 HNX       0.067700
     40 H19        146.1150   143.1440   134.4520 hc         1 HNX       0.048200
     41 H20        144.6040   142.3860   133.9790 hc         1 HNX       0.048200
     42 H21        145.0780   131.2210   132.3610 ha         1 HNX       0.108000
     43 H22        145.2440   133.6570   132.5930 ha         1 HNX       0.133000
     44 H23        142.7720   129.7350   136.2220 ha         1 HNX       0.106000
     45 H8         143.9660   129.8690   134.0950 ha         1 HNX       0.106000
     46 H9         143.0650   134.6450   136.7780 ha         1 HNX       0.120000
@<TRIPOS>BOND
     1     1    12 1   
     2     1    18 1   
     3     1    27 1   
     4     1    28 1   
     5     2    17 1   
     6     2    29 1   
     7     2    30 1   
     8     3    19 1   
     9     3    24 1   
    10     3    31 1   
    11     3    32 1   
    12     4     6 ar  
    13     4    19 ar  
    14     4    20 ar  
    15     5    20 ar  
    16     5    21 ar  
    17     5    45 1   
    18     6     7 ar  
    19     6    46 1   
    20     7     8 ar  
    21     7    33 1   
    22     8    23 ar  
    23     8    34 1   
    24     9    17 1   
    25     9    25 1   
    26     9    26 1   
    27    10    11 ar  
    28    10    15 ar  
    29    10    35 1   
    30    11    12 ar  
    31    11    16 1   
    32    12    13 ar  
    33    13    14 ar  
    34    13    36 1   
    35    14    15 ar  
    36    14    37 1   
    37    15    24 1   
    38    16    17 1   
    39    16    38 1   
    40    16    39 1   
    41    17    18 1   
    42    18    40 1   
    43    18    41 1   
    44    19    22 ar  
    45    20    23 ar  
    46    21    22 ar  
    47    21    42 1   
    48    22    43 1   
    49    23    44 1   
@<TRIPOS>SUBSTRUCTURE
     1 HNX         1 TEMP              0 ****  ****    0 ROOT
