@<TRIPOS>MOLECULE
HNY
   31    32     1     0     0
SMALL
bcc


@<TRIPOS>ATOM
      1 OAB          1.8860     2.4820     1.3950 o          1 HNY      -0.801300
      2 CAM          2.6110     1.5520     0.9870 c          1 HNY       0.936800
      3 OAD          3.8460     1.4950     0.9670 o          1 HNY      -0.801300
      4 CAR          1.8440     0.3480     0.4570 cc         1 HNY      -0.020200
      5 NAL          0.4860     0.4650     0.5510 na         1 HNY      -0.514800
      6 CAP          2.3520    -0.7990    -0.0750 cd         1 HNY      -0.034100
      7 OAE          3.6580    -1.0370    -0.2340 oh         1 HNY      -0.454100
      8 CAS          1.4770    -1.8760    -0.5240 c          1 HNY       0.523500
      9 OAC          2.0020    -2.9010    -1.0040 o          1 HNY      -0.682100
     10 CAJ          0.0830    -1.6450    -0.3760 cc         1 HNY      -0.358200
     11 CAO         -0.3830    -0.4700     0.1550 cd         1 HNY       0.174800
     12 CAQ         -1.8260    -0.1850     0.3300 ca         1 HNY      -0.056800
     13 CAI         -2.5240    -0.8980     1.3030 ca         1 HNY      -0.100000
     14 CAG         -3.8750    -0.6700     1.5140 ca         1 HNY      -0.144000
     15 CAF         -4.5350     0.2770     0.7430 ca         1 HNY      -0.128000
     16 CAH         -3.8420     0.9790    -0.2320 ca         1 HNY      -0.138000
     17 CAN         -2.4850     0.7650    -0.4610 ca         1 HNY      -0.046300
     18 CAK         -1.7990     1.4840    -1.5930 c3         1 HNY      -0.038100
     19 CAA         -1.7600     0.6350    -2.8630 c3         1 HNY      -0.086100
     20 H2           3.6980    -1.9220    -0.6410 ho         1 HNY       0.424000
     21 H3          -0.6230    -2.3980    -0.7000 ha         1 HNY       0.136000
     22 H5          -1.9990    -1.6310     1.9030 ha         1 HNY       0.142000
     23 H6          -4.4070    -1.2240     2.2760 ha         1 HNY       0.124000
     24 H7          -5.5880     0.4680     0.8990 ha         1 HNY       0.120000
     25 H8          -4.3680     1.7100    -0.8360 ha         1 HNY       0.123000
     26 H9          -2.3310     2.4150    -1.7990 hc         1 HNY       0.055200
     27 H10         -0.7830     1.7710    -1.3180 hc         1 HNY       0.055200
     28 H11         -1.2180    -0.2970    -2.7010 hc         1 HNY       0.035700
     29 H12         -2.7660     0.3830    -3.1970 hc         1 HNY       0.035700
     30 H13         -1.2620     1.1730    -3.6700 hc         1 HNY       0.035700
     31 H14          0.1740     1.3350     0.9690 hn         1 HNY       0.482800
@<TRIPOS>BOND
     1     1     2 1   
     2     2     3 1   
     3     2     4 1   
     4     4     5 1   
     5     4     6 2   
     6     5    11 1   
     7     5    31 1   
     8     6     7 1   
     9     6     8 1   
    10     7    20 1   
    11     8     9 2   
    12     8    10 1   
    13    10    11 2   
    14    10    21 1   
    15    11    12 1   
    16    12    13 ar  
    17    12    17 ar  
    18    13    14 ar  
    19    13    22 1   
    20    14    15 ar  
    21    14    23 1   
    22    15    16 ar  
    23    15    24 1   
    24    16    17 ar  
    25    16    25 1   
    26    17    18 1   
    27    18    19 1   
    28    18    26 1   
    29    18    27 1   
    30    19    28 1   
    31    19    29 1   
    32    19    30 1   
@<TRIPOS>SUBSTRUCTURE
     1 HNY         1 TEMP              0 ****  ****    0 ROOT
