@<TRIPOS>MOLECULE
HNY
   31    32     1     0     0
SMALL
No Charge or Current Charge


@<TRIPOS>ATOM
      1 OAB          2.2000     2.6850    -0.0750 o          1 HNY      -0.696000
      2 CAM          2.7770     1.6050    -0.1250 c          1 HNY       0.726200
      3 OAD          3.9940     1.5320    -0.2380 o          1 HNY      -0.696000
      4 CAR          1.9050     0.3700    -0.0390 cc         1 HNY      -0.020200
      5 NAL          0.4900     0.4360     0.0980 na         1 HNY      -0.570000
      6 CAP          2.3970    -0.9330    -0.0560 cd         1 HNY      -0.034100
      7 OAE          3.7120    -1.2780    -0.1570 oh         1 HNY      -0.493100
      8 CAS          1.5270    -2.1190     0.0540 c          1 HNY       0.523500
      9 OAC          1.9770    -3.2620     0.0630 o          1 HNY      -0.682100
     10 CAJ          0.1120    -1.8590     0.1400 cc         1 HNY      -0.408200
     11 CAO         -0.4500    -0.6050     0.0930 cd         1 HNY       0.174800
     12 CAQ         -1.9130    -0.3550     0.2510 ca         1 HNY      -0.056800
     13 CAI         -2.6870    -1.3240     0.9380 ca         1 HNY      -0.082000
     14 CAG         -4.0610    -1.1500     1.1560 ca         1 HNY      -0.126000
     15 CAF         -4.7030    -0.0030     0.6850 ca         1 HNY      -0.110000
     16 CAH         -3.9690     0.9650    -0.0120 ca         1 HNY      -0.120000
     17 CAN         -2.5830     0.8120    -0.2450 ca         1 HNY      -0.046300
     18 CAK         -1.9200     1.8900    -1.1160 c3         1 HNY      -0.038100
     19 CAA         -1.4770     1.3670    -2.4990 c3         1 HNY      -0.086100
     20 H2           3.7210    -2.2650    -0.1270 ho         1 HNY       0.463000
     21 H3          -0.4920    -2.7540     0.1860 ha         1 HNY       0.186000
     22 H5          -2.2230    -2.2140     1.3530 ha         1 HNY       0.124000
     23 H6          -4.6260    -1.9050     1.6980 ha         1 HNY       0.106000
     24 H7          -5.7690     0.1350     0.8510 ha         1 HNY       0.102000
     25 H8          -4.4940     1.8380    -0.3920 ha         1 HNY       0.105000
     26 H9          -2.6230     2.7130    -1.2950 hc         1 HNY       0.055200
     27 H10         -1.0810     2.3700    -0.6030 hc         1 HNY       0.055200
     28 H11         -0.7270     0.5730    -2.4110 hc         1 HNY       0.035700
     29 H12         -2.3360     0.9650    -3.0480 hc         1 HNY       0.035700
     30 H13         -1.0420     2.1800    -3.0930 hc         1 HNY       0.035700
     31 H14          0.1100     1.3750     0.1900 hn         1 HNY       0.538000
@<TRIPOS>BOND
     1     1     2 1   
     2     2     3 1   
     3     2     4 1   
     4     4     5 1   
     5     4     6 2   
     6     5    11 1   
     7     5    31 1   
     8     6     7 1   
     9     6     8 1   
    10     7    20 1   
    11     8     9 2   
    12     8    10 1   
    13    10    11 2   
    14    10    21 1   
    15    11    12 1   
    16    12    13 ar  
    17    12    17 ar  
    18    13    14 ar  
    19    13    22 1   
    20    14    15 ar  
    21    14    23 1   
    22    15    16 ar  
    23    15    24 1   
    24    16    17 ar  
    25    16    25 1   
    26    17    18 1   
    27    18    19 1   
    28    18    26 1   
    29    18    27 1   
    30    19    28 1   
    31    19    29 1   
    32    19    30 1   
@<TRIPOS>SUBSTRUCTURE
     1 HNY         1 TEMP              0 ****  ****    0 ROOT
