@<TRIPOS>MOLECULE
HNZ
   62    66     1     0     0
SMALL
abcg2


@<TRIPOS>ATOM
      1 CAA          0.4070     3.9450     0.4830 ca         1 HNZ      -0.100000
      2 CAB         -0.9240     3.5780     0.3320 ca         1 HNZ      -0.083300
      3 CAC         -1.2060     2.3470    -0.2800 ca         1 HNZ       0.297000
      4 CAD         -0.1720     1.5350    -0.7280 ca         1 HNZ      -0.054000
      5 CAE          1.1550     1.9020    -0.5310 ca         1 HNZ      -0.144600
      6 CAF          1.4430     3.1220     0.0730 ca         1 HNZ      -0.098000
      7 CAG          2.2050     0.9740    -1.0440 c          1 HNZ       0.624700
      8 CAJ          4.5940     0.3800    -0.6880 ca         1 HNZ      -0.019000
      9 CAK          5.6640     0.6340     0.1690 ca         1 HNZ      -0.126000
     10 CAL          6.8850     0.0060    -0.0200 ca         1 HNZ      -0.166300
     11 CAM          7.0640    -0.8900    -1.0660 ca         1 HNZ      -0.089000
     12 CAN          5.9990    -1.1350    -1.9180 ca         1 HNZ      -0.090000
     13 CAO          4.7710    -0.5160    -1.7450 ca         1 HNZ      -0.104000
     14 CAP         -2.0240     4.4800     0.8030 c3         1 HNZ      -0.054800
     15 CAR         -3.1240     0.7800    -0.3620 ca         1 HNZ       0.457900
     16 CAT         -3.0390    -1.3950     0.0420 ca         1 HNZ       0.325500
     17 CAV         -4.9980    -0.4650    -0.4870 ca         1 HNZ       0.467900
     18 CAY         -2.7680    -3.7970     0.5180 cc         1 HNZ       0.434400
     19 CBA         -0.6700    -3.8750     0.8900 cd         1 HNZ       0.226900
     20 CBB         -0.9370    -2.5730     0.6170 cc         1 HNZ      -0.183000
     21 CBD         -7.1570     0.5660    -1.0150 c6         1 HNZ       0.222300
     22 CBE         -8.2670     0.6750     0.0190 c6         1 HNZ       0.135300
     23 CBG         -8.1530    -1.6770     0.4410 c6         1 HNZ       0.135300
     24 CBH         -7.0400    -1.8260    -0.5840 c6         1 HNZ       0.222300
     25 CBI          7.9900     0.2740     0.9540 c3         1 HNZ       0.355300
     26 FBJ          8.0500     1.5650     1.3060 f          1 HNZ      -0.113667
     27 FBK          7.8230    -0.4230     2.0890 f          1 HNZ      -0.113667
     28 FBL          9.1900    -0.0570     0.4690 f          1 HNZ      -0.113667
     29 NAH          3.4100     1.0690    -0.4210 ns         1 HNZ      -0.144000
     30 NAQ         -2.5500     1.9990    -0.4680 nu         1 HNZ      -0.933900
     31 NAS         -2.3660    -0.2640    -0.0230 nb         1 HNZ      -0.325000
     32 NAU         -4.3160    -1.5840    -0.1710 nb         1 HNZ      -0.339000
     33 NAW         -4.4280     0.7370    -0.5990 nb         1 HNZ      -0.368000
     34 NAX         -2.2930    -2.5250     0.3770 na         1 HNZ      -0.195000
     35 NAZ         -1.8190    -4.6280     0.8250 nd         1 HNZ      -0.670000
     36 NBC         -6.3110    -0.5750    -0.7080 nh         1 HNZ      -0.758300
     37 NBF         -9.0110    -0.5700     0.0670 n7         1 HNZ      -0.862400
     38 OAI          1.9700     0.1910    -1.9470 o          1 HNZ      -0.572100
     39 H1           0.6410     4.8980     0.9410 ha         1 HNZ       0.120000
     40 H2          -0.3980     0.6080    -1.2320 ha         1 HNZ       0.159000
     41 H3           2.4610     3.4670     0.2030 ha         1 HNZ       0.116000
     42 H4           5.5300     1.3370     0.9830 ha         1 HNZ       0.123000
     43 H5           8.0090    -1.3900    -1.2270 ha         1 HNZ       0.133000
     44 H6           6.1240    -1.8250    -2.7410 ha         1 HNZ       0.124000
     45 H7           3.9690    -0.7350    -2.4290 ha         1 HNZ       0.155000
     46 H8          -2.6180     4.8640    -0.0300 hc         1 HNZ       0.048700
     47 H9          -2.7100     3.9640     1.4770 hc         1 HNZ       0.048700
     48 H10         -1.6190     5.3400     1.3330 hc         1 HNZ       0.048700
     49 H12          0.2850    -4.3160     1.1290 h4         1 HNZ       0.041100
     50 H13         -0.3130    -1.6980     0.5730 h4         1 HNZ       0.177000
     51 H14         -7.5920     0.4230    -2.0090 h1         1 HNZ       0.073450
     52 H15         -6.5610     1.4720    -1.0330 h1         1 HNZ       0.073450
     53 H16         -7.8170     0.9420     0.9880 h1         1 HNZ       0.042950
     54 H17         -8.9370     1.4880    -0.2650 h1         1 HNZ       0.042950
     55 H18         -8.7370    -2.5990     0.4610 h1         1 HNZ       0.042950
     56 H19         -7.6990    -1.5530     1.4370 h1         1 HNZ       0.042950
     57 H20         -6.3600    -2.6230    -0.3000 h1         1 HNZ       0.073450
     58 H21         -7.4700    -2.0770    -1.5590 h1         1 HNZ       0.073450
     59 H22          3.4530     1.6700     0.3870 hn         1 HNZ       0.156000
     60 H23         -3.2040     2.7480    -0.6420 hn         1 HNZ       0.517000
     61 H24         -9.7710    -0.4870     0.7290 hn         1 HNZ       0.418000
     62 H11         -3.8110    -4.0360     0.3810 h5         1 HNZ       0.071100
@<TRIPOS>BOND
     1     1     2 ar  
     2     1     6 ar  
     3     1    39 1   
     4     2     3 ar  
     5     2    14 1   
     6     3     4 ar  
     7     3    30 1   
     8     4     5 ar  
     9     4    40 1   
    10     5     6 ar  
    11     5     7 1   
    12     6    41 1   
    13     7    29 1   
    14     7    38 2   
    15     8     9 ar  
    16     8    13 ar  
    17     8    29 1   
    18     9    10 ar  
    19     9    42 1   
    20    10    11 ar  
    21    10    25 1   
    22    11    12 ar  
    23    11    43 1   
    24    12    13 ar  
    25    12    44 1   
    26    13    45 1   
    27    14    46 1   
    28    14    47 1   
    29    14    48 1   
    30    15    30 1   
    31    15    31 ar  
    32    15    33 ar  
    33    16    31 ar  
    34    16    32 ar  
    35    16    34 1   
    36    17    32 ar  
    37    17    33 ar  
    38    17    36 1   
    39    18    34 1   
    40    18    35 2   
    41    18    62 1   
    42    19    20 2   
    43    19    35 1   
    44    19    49 1   
    45    20    34 1   
    46    20    50 1   
    47    21    22 1   
    48    21    36 1   
    49    21    51 1   
    50    21    52 1   
    51    22    37 1   
    52    22    53 1   
    53    22    54 1   
    54    23    24 1   
    55    23    37 1   
    56    23    55 1   
    57    23    56 1   
    58    24    36 1   
    59    24    57 1   
    60    24    58 1   
    61    25    26 1   
    62    25    27 1   
    63    25    28 1   
    64    29    59 1   
    65    30    60 1   
    66    37    61 1   
@<TRIPOS>SUBSTRUCTURE
     1 HNZ         1 TEMP              0 ****  ****    0 ROOT
