@<TRIPOS>MOLECULE
HNZ
   62    66     1     0     0
SMALL
No Charge or Current Charge


@<TRIPOS>ATOM
      1 CAA          0.6170     3.7230     0.9520 ca         1 HNZ      -0.100000
      2 CAB         -0.7410     3.3760     0.8180 ca         1 HNZ      -0.083300
      3 CAC         -1.0880     2.1190     0.2690 ca         1 HNZ       0.297000
      4 CAD         -0.0620     1.2500    -0.1600 ca         1 HNZ      -0.054000
      5 CAE          1.3040     1.5890    -0.0270 ca         1 HNZ      -0.144600
      6 CAF          1.6300     2.8430     0.5410 ca         1 HNZ      -0.098000
      7 CAG          2.3630     0.6060    -0.4960 c          1 HNZ       0.624700
      8 CAJ          4.9270     0.4030    -0.6520 ca         1 HNZ      -0.019000
      9 CAK          6.0960     1.1440    -0.3950 ca         1 HNZ      -0.126000
     10 CAL          7.3770     0.6140    -0.6670 ca         1 HNZ      -0.166300
     11 CAM          7.4750    -0.6910    -1.1920 ca         1 HNZ      -0.089000
     12 CAN          6.3160    -1.4390    -1.4520 ca         1 HNZ      -0.090000
     13 CAO          5.0470    -0.8990    -1.1860 ca         1 HNZ      -0.104000
     14 CAP         -1.8080     4.3660     1.2850 c3         1 HNZ      -0.054800
     15 CAR         -3.1470     0.5860     0.1160 ca         1 HNZ       0.457900
     16 CAT         -3.2390    -1.6920     0.3590 ca         1 HNZ       0.325500
     17 CAV         -5.1210    -0.4510    -0.1400 ca         1 HNZ       0.467900
     18 CAY         -3.2650    -4.0220     1.1030 cc         1 HNZ       0.434400
     19 CBA         -1.1670    -4.5040     0.8000 cd         1 HNZ       0.226900
     20 CBB         -1.2870    -3.1920     0.4090 cc         1 HNZ      -0.183000
     21 CBD         -7.1650     0.8430    -0.9410 c6         1 HNZ       0.222300
     22 CBE         -8.7030     0.9090    -0.6590 c6         1 HNZ       0.135300
     23 CBG         -8.8230    -1.5240    -0.4280 c6         1 HNZ       0.135300
     24 CBH         -7.2890    -1.6640    -0.7030 c6         1 HNZ       0.222300
     25 CBI          8.6390     1.4360    -0.3700 c3         1 HNZ       0.355300
     26 FBJ          8.4450     2.7610    -0.5630 f          1 HNZ      -0.113667
     27 FBK          9.0360     1.2790     0.9130 f          1 HNZ      -0.113667
     28 FBL          9.6840     1.0820    -1.1530 f          1 HNZ      -0.113667
     29 NAH          3.6810     1.0220    -0.3480 ns         1 HNZ      -0.144000
     30 NAQ         -2.4440     1.7740     0.1280 nu         1 HNZ      -0.933900
     31 NAS         -2.5040    -0.5580     0.3730 nb         1 HNZ      -0.325000
     32 NAU         -4.5670    -1.6540     0.1010 nb         1 HNZ      -0.339000
     33 NAW         -4.4470     0.7080    -0.1400 nb         1 HNZ      -0.368000
     34 NAX         -2.6200    -2.9160     0.6110 na         1 HNZ      -0.195000
     35 NAZ         -2.3870    -5.0120     1.2280 nd         1 HNZ      -0.670000
     36 NBC         -6.5140    -0.4050    -0.3990 nh         1 HNZ      -0.758300
     37 NBF         -9.4290    -0.3250    -1.0700 n7         1 HNZ      -0.862400
     38 OAI          2.0480    -0.4800    -0.9710 o          1 HNZ      -0.572100
     39 H1           0.8940     4.6850     1.3800 ha         1 HNZ       0.120000
     40 H2          -0.3300     0.3060    -0.6210 ha         1 HNZ       0.159000
     41 H3           2.6630     3.1580     0.6680 ha         1 HNZ       0.116000
     42 H4           6.0080     2.1450     0.0240 ha         1 HNZ       0.123000
     43 H5           8.4470    -1.1340    -1.3990 ha         1 HNZ       0.133000
     44 H6           6.4010    -2.4450    -1.8580 ha         1 HNZ       0.124000
     45 H7           4.1760    -1.5110    -1.3980 ha         1 HNZ       0.155000
     46 H8          -2.4210     4.7130     0.4440 hc         1 HNZ       0.048700
     47 H9          -2.4750     3.9110     2.0280 hc         1 HNZ       0.048700
     48 H10         -1.3650     5.2540     1.7520 hc         1 HNZ       0.048700
     49 H12         -0.2700    -5.1120     0.7990 h4         1 HNZ       0.041100
     50 H13         -0.5600    -2.4870     0.0260 h4         1 HNZ       0.177000
     51 H14         -7.0070     0.9000    -2.0280 h1         1 HNZ       0.073450
     52 H15         -6.7190     1.7480    -0.5040 h1         1 HNZ       0.073450
     53 H16         -8.8530     1.0700     0.4200 h1         1 HNZ       0.042950
     54 H17         -9.1300     1.7790    -1.1790 h1         1 HNZ       0.042950
     55 H18         -9.3380    -2.4300    -0.7800 h1         1 HNZ       0.042950
     56 H19         -8.9790    -1.4650     0.6600 h1         1 HNZ       0.042950
     57 H20         -6.9300    -2.5110    -0.1010 h1         1 HNZ       0.073450
     58 H21         -7.1470    -1.9390    -1.7590 h1         1 HNZ       0.073450
     59 H22          3.7780     1.9440     0.0540 hn         1 HNZ       0.156000
     60 H23         -3.0720     2.5750     0.1410 hn         1 HNZ       0.517000
     61 H24        -10.4140    -0.2490    -0.7820 hn         1 HNZ       0.418000
     62 H11         -4.3220    -4.0460     1.3450 h5         1 HNZ       0.071100
@<TRIPOS>BOND
     1     1     2 ar  
     2     1     6 ar  
     3     1    39 1   
     4     2     3 ar  
     5     2    14 1   
     6     3     4 ar  
     7     3    30 1   
     8     4     5 ar  
     9     4    40 1   
    10     5     6 ar  
    11     5     7 1   
    12     6    41 1   
    13     7    29 1   
    14     7    38 2   
    15     8     9 ar  
    16     8    13 ar  
    17     8    29 1   
    18     9    10 ar  
    19     9    42 1   
    20    10    11 ar  
    21    10    25 1   
    22    11    12 ar  
    23    11    43 1   
    24    12    13 ar  
    25    12    44 1   
    26    13    45 1   
    27    14    46 1   
    28    14    47 1   
    29    14    48 1   
    30    15    30 1   
    31    15    31 ar  
    32    15    33 ar  
    33    16    31 ar  
    34    16    32 ar  
    35    16    34 1   
    36    17    32 ar  
    37    17    33 ar  
    38    17    36 1   
    39    18    34 1   
    40    18    35 2   
    41    18    62 1   
    42    19    20 2   
    43    19    35 1   
    44    19    49 1   
    45    20    34 1   
    46    20    50 1   
    47    21    22 1   
    48    21    36 1   
    49    21    51 1   
    50    21    52 1   
    51    22    37 1   
    52    22    53 1   
    53    22    54 1   
    54    23    24 1   
    55    23    37 1   
    56    23    55 1   
    57    23    56 1   
    58    24    36 1   
    59    24    57 1   
    60    24    58 1   
    61    25    26 1   
    62    25    27 1   
    63    25    28 1   
    64    29    59 1   
    65    30    60 1   
    66    37    61 1   
@<TRIPOS>SUBSTRUCTURE
     1 HNZ         1 TEMP              0 ****  ****    0 ROOT
