@<TRIPOS>MOLECULE
HO0
   50    53     1     0     0
SMALL
No Charge or Current Charge


@<TRIPOS>ATOM
      1 C10        145.5240   141.1980   133.7900 c6         1 HO0      -0.026100
      2 N12        146.4960   140.4270   136.5240 n8         1 HO0      -0.993200
      3 C13        145.2260   134.5900   132.9340 c3         1 HO0       0.207900
      4 C15        146.1630   134.2230   135.3270 cp         1 HO0      -0.017000
      5 C17        148.5960   134.1670   135.6710 ca         1 HO0      -0.107000
      6 C20        144.7980   134.1430   135.9280 cp         1 HO0      -0.051000
      7 C21        144.4140   135.0350   136.9580 ca         1 HO0      -0.099000
      8 C22        143.1330   134.9680   137.5320 ca         1 HO0      -0.109500
      9 C24        142.5830   133.0950   136.0810 ca         1 HO0      -0.109500
     10 C26        144.1380   140.8300   137.5270 c          1 HO0       0.731000
     11 C01        145.0410   137.3780   133.8370 ca         1 HO0      -0.194000
     12 C02        145.0570   138.7220   134.2600 ca         1 HO0      -0.005300
     13 C03        145.4920   139.7280   133.3680 ca         1 HO0      -0.107300
     14 C04        145.9210   139.3760   132.0750 ca         1 HO0      -0.089000
     15 C05        145.9100   138.0330   131.6660 ca         1 HO0      -0.167000
     16 C06        145.4750   137.0270   132.5420 ca         1 HO0       0.120100
     17 C07        144.5590   139.0630   135.6730 c6         1 HO0      -0.020100
     18 C08        145.0120   140.4530   136.2300 c6         1 HO0       0.043200
     19 C09        144.7390   141.4900   135.0940 c6         1 HO0      -0.098400
     20 C14        146.3800   134.4100   133.9290 ca         1 HO0      -0.104300
     21 C16        147.2900   134.1150   136.1790 ca         1 HO0      -0.100000
     22 C18        148.8010   134.3290   134.2940 ca         1 HO0      -0.116000
     23 C19        147.7010   134.4500   133.4310 ca         1 HO0      -0.089000
     24 C23        142.2160   133.9990   137.0920 ca         1 HO0      -0.110000
     25 C25        143.8640   133.1650   135.5070 ca         1 HO0      -0.099000
     26 O11        145.4790   135.7250   132.0790 os         1 HO0      -0.357100
     27 O27        143.8410   139.9190   138.2920 o          1 HO0      -0.726000
     28 O28        144.2440   141.9770   137.9490 o          1 HO0      -0.726000
     29 H1         146.5700   141.5090   133.9120 hc         1 HO0       0.026200
     30 H2         146.9950   140.4140   135.6300 hn         1 HO0       0.383500
     31 H3         146.7540   141.3290   136.9410 hn         1 HO0       0.383500
     32 H5         145.1510   133.6790   132.3260 h1         1 HO0       0.058700
     33 H6         144.2640   134.7120   133.4450 h1         1 HO0       0.058700
     34 H7         149.4470   134.0760   136.3420 ha         1 HO0       0.108000
     35 H8         145.1160   135.7900   137.3050 ha         1 HO0       0.120000
     36 H9         142.8520   135.6670   138.3180 ha         1 HO0       0.117500
     37 H10        141.8760   132.3400   135.7440 ha         1 HO0       0.117500
     38 H11        144.6830   136.6230   134.5280 ha         1 HO0       0.120000
     39 H13        146.2640   140.1450   131.3860 ha         1 HO0       0.096000
     40 H14        146.2420   137.7700   130.6650 ha         1 HO0       0.106000
     41 H15        144.8710   138.2720   136.3690 hc         1 HO0       0.066200
     42 H16        143.4610   139.0230   135.6590 hc         1 HO0       0.066200
     43 H18        144.9790   142.5070   135.4340 hc         1 HO0       0.047700
     44 H19        147.1420   133.9790   137.2480 ha         1 HO0       0.115000
     45 H20        149.8120   134.3660   133.8950 ha         1 HO0       0.106000
     46 H21        147.8760   134.5860   132.3660 ha         1 HO0       0.119000
     47 H22        141.2250   133.9460   137.5360 ha         1 HO0       0.109000
     48 H23        144.1410   132.4530   134.7320 ha         1 HO0       0.120000
     49 H25        145.1200   141.8240   132.9820 hc         1 HO0       0.026200
     50 H4         143.6630   141.4970   134.8680 hc         1 HO0       0.047700
@<TRIPOS>BOND
     1     1    13 1   
     2     1    19 1   
     3     1    29 1   
     4     1    49 1   
     5     2    18 1   
     6     2    30 1   
     7     2    31 1   
     8     3    20 1   
     9     3    26 1   
    10     3    32 1   
    11     3    33 1   
    12     4     6 1   
    13     4    20 ar  
    14     4    21 ar  
    15     5    21 ar  
    16     5    22 ar  
    17     5    34 1   
    18     6     7 ar  
    19     6    25 ar  
    20     7     8 ar  
    21     7    35 1   
    22     8    24 ar  
    23     8    36 1   
    24     9    24 ar  
    25     9    25 ar  
    26     9    37 1   
    27    10    18 1   
    28    10    27 1   
    29    10    28 1   
    30    11    12 ar  
    31    11    16 ar  
    32    11    38 1   
    33    12    13 ar  
    34    12    17 1   
    35    13    14 ar  
    36    14    15 ar  
    37    14    39 1   
    38    15    16 ar  
    39    15    40 1   
    40    16    26 1   
    41    17    18 1   
    42    17    41 1   
    43    17    42 1   
    44    18    19 1   
    45    19    43 1   
    46    19    50 1   
    47    20    23 ar  
    48    21    44 1   
    49    22    23 ar  
    50    22    45 1   
    51    23    46 1   
    52    24    47 1   
    53    25    48 1   
@<TRIPOS>SUBSTRUCTURE
     1 HO0         1 TEMP              0 ****  ****    0 ROOT
