@<TRIPOS>MOLECULE
HO0
   50    53     1     0     0
SMALL
bcc


@<TRIPOS>ATOM
      1 C10        145.3910   141.1770   133.8020 c6         1 HO0      -0.026100
      2 N12        146.4220   140.3770   136.4900 n8         1 HO0      -0.882800
      3 C13        145.2930   134.6920   132.9860 c3         1 HO0       0.184700
      4 C15        146.2040   134.2000   135.3240 cp         1 HO0      -0.017000
      5 C17        148.5960   134.0130   135.6650 ca         1 HO0      -0.125000
      6 C20        144.8480   134.1760   135.9220 cp         1 HO0      -0.051000
      7 C21        144.5210   135.0670   136.9440 ca         1 HO0      -0.117000
      8 C22        143.2560   135.0590   137.5150 ca         1 HO0      -0.127500
      9 C24        142.6200   133.2490   136.0710 ca         1 HO0      -0.127500
     10 C26        144.2140   140.8030   137.4690 c          1 HO0       0.941600
     11 C01        145.1260   137.3770   133.8820 ca         1 HO0      -0.212000
     12 C02        145.0650   138.7140   134.2870 ca         1 HO0      -0.005300
     13 C03        145.4150   139.7260   133.3960 ca         1 HO0      -0.107300
     14 C04        145.8250   139.3640   132.1110 ca         1 HO0      -0.107000
     15 C05        145.8810   138.0460   131.7040 ca         1 HO0      -0.185000
     16 C06        145.5230   137.0350   132.5970 ca         1 HO0       0.120100
     17 C07        144.5780   139.0220   135.6810 c6         1 HO0      -0.020100
     18 C08        144.9960   140.4000   136.1850 c6         1 HO0       0.043200
     19 C09        144.6210   141.4220   135.0920 c6         1 HO0      -0.098400
     20 C14        146.4190   134.4290   133.9600 ca         1 HO0      -0.104300
     21 C16        147.3040   134.0030   136.1620 ca         1 HO0      -0.118000
     22 C18        148.8070   134.2250   134.3090 ca         1 HO0      -0.134000
     23 C19        147.7250   134.4340   133.4710 ca         1 HO0      -0.107000
     24 C23        142.3010   134.1500   137.0790 ca         1 HO0      -0.128000
     25 C25        143.8830   133.2630   135.4970 ca         1 HO0      -0.117000
     26 O11        145.5760   135.7700   132.1160 os         1 HO0      -0.333900
     27 O27        143.0310   140.4190   137.5570 o          1 HO0      -0.831300
     28 O28        144.8200   141.5320   138.2800 o          1 HO0      -0.831300
     29 H1         146.4190   141.5390   133.9100 hc         1 HO0       0.026200
     30 H2         146.9720   140.2960   135.6440 hn         1 HO0       0.328300
     31 H3         146.6740   141.2580   136.9200 hn         1 HO0       0.328300
     32 H5         145.1600   133.8290   132.3300 h1         1 HO0       0.058700
     33 H6         144.3410   134.8450   133.5000 h1         1 HO0       0.058700
     34 H7         149.4340   133.8500   136.3310 ha         1 HO0       0.126000
     35 H8         145.2580   135.7860   137.2820 ha         1 HO0       0.138000
     36 H9         143.0160   135.7660   138.2990 ha         1 HO0       0.135500
     37 H10        141.8840   132.5320   135.7310 ha         1 HO0       0.135500
     38 H11        144.8460   136.6210   134.6040 ha         1 HO0       0.138000
     39 H13        146.1040   140.1410   131.4080 ha         1 HO0       0.114000
     40 H14        146.1970   137.7910   130.7000 ha         1 HO0       0.124000
     41 H15        144.9390   138.2540   136.3720 hc         1 HO0       0.066200
     42 H16        143.4880   138.9570   135.6940 hc         1 HO0       0.066200
     43 H18        144.8160   142.4380   135.4470 hc         1 HO0       0.047700
     44 H19        147.1370   133.8300   137.2180 ha         1 HO0       0.133000
     45 H20        149.8110   134.2290   133.9050 ha         1 HO0       0.124000
     46 H21        147.8980   134.6120   132.4170 ha         1 HO0       0.137000
     47 H22        141.3140   134.1420   137.5240 ha         1 HO0       0.127000
     48 H23        144.1240   132.5490   134.7180 ha         1 HO0       0.138000
     49 H25        144.9620   141.7790   132.9960 hc         1 HO0       0.026200
     50 H4         143.5470   141.3550   134.8980 hc         1 HO0       0.047700
@<TRIPOS>BOND
     1     1    13 1   
     2     1    19 1   
     3     1    29 1   
     4     1    49 1   
     5     2    18 1   
     6     2    30 1   
     7     2    31 1   
     8     3    20 1   
     9     3    26 1   
    10     3    32 1   
    11     3    33 1   
    12     4     6 1   
    13     4    20 ar  
    14     4    21 ar  
    15     5    21 ar  
    16     5    22 ar  
    17     5    34 1   
    18     6     7 ar  
    19     6    25 ar  
    20     7     8 ar  
    21     7    35 1   
    22     8    24 ar  
    23     8    36 1   
    24     9    24 ar  
    25     9    25 ar  
    26     9    37 1   
    27    10    18 1   
    28    10    27 1   
    29    10    28 1   
    30    11    12 ar  
    31    11    16 ar  
    32    11    38 1   
    33    12    13 ar  
    34    12    17 1   
    35    13    14 ar  
    36    14    15 ar  
    37    14    39 1   
    38    15    16 ar  
    39    15    40 1   
    40    16    26 1   
    41    17    18 1   
    42    17    41 1   
    43    17    42 1   
    44    18    19 1   
    45    19    43 1   
    46    19    50 1   
    47    20    23 ar  
    48    21    44 1   
    49    22    23 ar  
    50    22    45 1   
    51    23    46 1   
    52    24    47 1   
    53    25    48 1   
@<TRIPOS>SUBSTRUCTURE
     1 HO0         1 TEMP              0 ****  ****    0 ROOT
