@<TRIPOS>MOLECULE
HO1
   30    32     1     0     0
SMALL
No Charge or Current Charge


@<TRIPOS>ATOM
      1 OAA         -5.7200     0.7210     0.0200 o          1 HO1      -0.694500
      2 CAO         -4.5790     1.1640     0.0320 c          1 HO1       0.727200
      3 OAC         -4.3570     2.3690     0.0640 o          1 HO1      -0.694500
      4 CAU         -3.3650     0.2560     0.0080 cc         1 HO1      -0.019200
      5 NAN         -2.0310     0.7530     0.0220 na         1 HO1      -0.573000
      6 CAS         -3.4400    -1.1350    -0.0290 cd         1 HO1      -0.028100
      7 OAD         -4.5920    -1.8630    -0.0490 oh         1 HO1      -0.490100
      8 CAV         -2.2470    -2.0020    -0.0520 c          1 HO1       0.522500
      9 OAB         -2.3300    -3.2270    -0.0840 o          1 HO1      -0.672100
     10 CAI         -0.9720    -1.3280    -0.0330 cc         1 HO1      -0.393200
     11 CAR         -0.8180     0.0390     0.0030 cd         1 HO1       0.163800
     12 CAP          0.4990     0.7410     0.0230 ca         1 HO1      -0.045800
     13 CAH          1.7240     0.0280     0.0040 ca         1 HO1      -0.035000
     14 CAF          0.5620     2.1550     0.0610 ca         1 HO1      -0.073000
     15 CAE          1.7960     2.8230     0.0790 ca         1 HO1      -0.117000
     16 CAG          2.9950     2.1010     0.0600 ca         1 HO1      -0.101000
     17 CAQ          2.9730     0.6920     0.0220 ca         1 HO1      -0.159500
     18 CAT          4.2230    -0.0840     0.0020 cc         1 HO1       0.471000
     19 NAM          5.4900     0.4250     0.0160 na         1 HO1      -0.216700
     20 NAK          6.4070    -0.5750    -0.0110 nc         1 HO1      -0.221800
     21 NAJ          5.6940    -1.6680    -0.0400 nd         1 HO1      -0.045000
     22 NAL          4.3460    -1.3960    -0.0330 nd         1 HO1      -0.384000
     23 H2          -1.9590     1.7690     0.0490 hn         1 HO1       0.537000
     24 H3          -4.3010    -2.8050    -0.0740 ho         1 HO1       0.464000
     25 H4          -0.1360    -2.0100    -0.0510 ha         1 HO1       0.189000
     26 H5           1.7240    -1.0560    -0.0250 ha         1 HO1       0.155000
     27 H6          -0.3390     2.7610     0.0770 ha         1 HO1       0.137000
     28 H7           1.8210     3.9110     0.1080 ha         1 HO1       0.116000
     29 H8           3.9350     2.6460     0.0750 ha         1 HO1       0.096000
     30 H9           5.7500     1.4020     0.0420 hn         1 HO1       0.383000
@<TRIPOS>BOND
     1     1     2 1   
     2     2     3 1   
     3     2     4 1   
     4     4     5 1   
     5     4     6 2   
     6     5    11 1   
     7     5    23 1   
     8     6     7 1   
     9     6     8 1   
    10     7    24 1   
    11     8     9 2   
    12     8    10 1   
    13    10    11 2   
    14    10    25 1   
    15    11    12 1   
    16    12    13 ar  
    17    12    14 ar  
    18    13    17 ar  
    19    13    26 1   
    20    14    15 ar  
    21    14    27 1   
    22    15    16 ar  
    23    15    28 1   
    24    16    17 ar  
    25    16    29 1   
    26    17    18 1   
    27    18    19 1   
    28    18    22 2   
    29    19    20 1   
    30    19    30 1   
    31    20    21 2   
    32    21    22 1   
@<TRIPOS>SUBSTRUCTURE
     1 HO1         1 TEMP              0 ****  ****    0 ROOT
