@<TRIPOS>MOLECULE
HO1
   30    32     1     0     0
SMALL
abcg2


@<TRIPOS>ATOM
      1 OAA         -5.3430     0.7010    -1.0120 o          1 HO1      -0.694500
      2 CAO         -4.1780     1.1030    -0.9220 c          1 HO1       0.727200
      3 OAC         -3.7140     2.2140    -1.2510 o          1 HO1      -0.694500
      4 CAU         -3.1480     0.1440    -0.3420 cc         1 HO1      -0.019200
      5 NAN         -1.8910     0.6680    -0.2500 na         1 HO1      -0.573000
      6 CAS         -3.3410    -1.1420     0.0670 cd         1 HO1      -0.028100
      7 OAD         -4.5220    -1.7660     0.0340 oh         1 HO1      -0.490100
      8 CAV         -2.2350    -1.9450     0.5760 c          1 HO1       0.522500
      9 OAB         -2.4680    -3.1170     0.9300 o          1 HO1      -0.672100
     10 CAI         -0.9720    -1.2950     0.6320 cc         1 HO1      -0.393200
     11 CAR         -0.8270     0.0030     0.2120 cd         1 HO1       0.163800
     12 CAP          0.4580     0.7240     0.2660 ca         1 HO1      -0.045800
     13 CAH          1.6360     0.0600    -0.0500 ca         1 HO1      -0.035000
     14 CAF          0.5090     2.0670     0.6420 ca         1 HO1      -0.073000
     15 CAE          1.7260     2.7280     0.7000 ca         1 HO1      -0.117000
     16 CAG          2.9000     2.0640     0.3850 ca         1 HO1      -0.101000
     17 CAQ          2.8580     0.7240     0.0070 ca         1 HO1      -0.159500
     18 CAT          4.0690    -0.0070    -0.3420 cc         1 HO1       0.471000
     19 NAM          5.3200     0.4620    -0.3260 na         1 HO1      -0.216700
     20 NAK          6.1470    -0.4960    -0.7060 nc         1 HO1      -0.221800
     21 NAJ          5.4260    -1.5180    -0.9470 nd         1 HO1      -0.045000
     22 NAL          4.1390    -1.2600    -0.7360 nd         1 HO1      -0.384000
     23 H2          -1.8190     1.6130    -0.6160 hn         1 HO1       0.537000
     24 H3          -4.3420    -2.6610     0.3750 ho         1 HO1       0.464000
     25 H4          -0.1220    -1.8270     1.0360 ha         1 HO1       0.189000
     26 H5           1.6050    -0.9760    -0.3590 ha         1 HO1       0.155000
     27 H6          -0.3940     2.5960     0.9180 ha         1 HO1       0.137000
     28 H7           1.7610     3.7660     1.0010 ha         1 HO1       0.116000
     29 H8           3.8360     2.6050     0.4430 ha         1 HO1       0.096000
     30 H9           5.6790     1.3740    -0.0800 hn         1 HO1       0.383000
@<TRIPOS>BOND
     1     1     2 1   
     2     2     3 1   
     3     2     4 1   
     4     4     5 1   
     5     4     6 2   
     6     5    11 1   
     7     5    23 1   
     8     6     7 1   
     9     6     8 1   
    10     7    24 1   
    11     8     9 2   
    12     8    10 1   
    13    10    11 2   
    14    10    25 1   
    15    11    12 1   
    16    12    13 ar  
    17    12    14 ar  
    18    13    17 ar  
    19    13    26 1   
    20    14    15 ar  
    21    14    27 1   
    22    15    16 ar  
    23    15    28 1   
    24    16    17 ar  
    25    16    29 1   
    26    17    18 1   
    27    18    19 1   
    28    18    22 2   
    29    19    20 1   
    30    19    30 1   
    31    20    21 2   
    32    21    22 1   
@<TRIPOS>SUBSTRUCTURE
     1 HO1         1 TEMP              0 ****  ****    0 ROOT
