@<TRIPOS>MOLECULE
HO2
   52    51     1     0     0
SMALL
No Charge or Current Charge


@<TRIPOS>ATOM
      1 C18        -10.6540     2.5860    -0.8130 c3         1 HO2      -0.088100
      2 C17         -9.7610     1.6180    -0.0140 c3         1 HO2      -0.074400
      3 C16         -8.2960     1.6030    -0.5040 c3         1 HO2      -0.077400
      4 C15         -7.4000     0.6320     0.2970 c3         1 HO2      -0.072400
      5 C14         -5.9330     0.6180    -0.1960 c3         1 HO2      -0.109400
      6 C13         -5.0220    -0.3800     0.5600 c3         1 HO2       0.207500
      7 O21         -4.8860     0.0260     1.9190 oh         1 HO2      -0.655000
      8 C12         -3.6350    -0.4630    -0.0350 c2         1 HO2      -0.266200
      9 C11         -2.7010    -1.3870     0.2770 ce         1 HO2      -0.155000
     10 C10         -1.3710    -1.4230    -0.3370 ce         1 HO2      -0.210000
     11 C09         -0.4340    -2.3430    -0.0270 c2         1 HO2      -0.181200
     12 C08          0.9520    -2.4210    -0.6320 c3         1 HO2      -0.049200
     13 C07          1.9390    -1.4430     0.0390 c3         1 HO2      -0.071400
     14 C06          3.3610    -1.5100    -0.5590 c3         1 HO2      -0.076400
     15 C05          4.3470    -0.5300     0.1140 c3         1 HO2      -0.075400
     16 C04          5.7700    -0.5970    -0.4840 c3         1 HO2      -0.079400
     17 C03          6.7570     0.3830     0.1890 c3         1 HO2      -0.054400
     18 C02          8.1830     0.3180    -0.4090 c3         1 HO2      -0.203400
     19 C01          9.1070     1.3190     0.3090 c          1 HO2       0.716000
     20 O20          9.7010     0.9420     1.3080 o          1 HO2      -0.743500
     21 O19          9.1700     2.4600    -0.1230 o          1 HO2      -0.743500
     22 H18        -11.6810     2.5620    -0.4300 hc         1 HO2       0.030367
     23 H18A       -10.2820     3.6140    -0.7330 hc         1 HO2       0.030367
     24 H18B       -10.6770     2.3070    -1.8740 hc         1 HO2       0.030367
     25 H17         -9.7870     1.9020     1.0460 hc         1 HO2       0.036200
     26 H17A       -10.1790     0.6060    -0.0850 hc         1 HO2       0.036200
     27 H16         -8.2740     1.3210    -1.5640 hc         1 HO2       0.037200
     28 H16A        -7.8820     2.6160    -0.4330 hc         1 HO2       0.037200
     29 H15         -7.4270     0.9150     1.3570 hc         1 HO2       0.042700
     30 H15A        -7.8140    -0.3820     0.2260 hc         1 HO2       0.042700
     31 H14         -5.9270     0.3540    -1.2610 hc         1 HO2       0.044700
     32 H14A        -5.5130     1.6280    -0.1190 hc         1 HO2       0.044700
     33 H13         -5.4880    -1.3760     0.5070 h1         1 HO2       0.073700
     34 HO21        -4.1740     0.7000     1.9270 ho         1 HO2       0.440000
     35 H12         -3.4160     0.3040    -0.7800 ha         1 HO2       0.173000
     36 H11         -2.9230    -2.1560     1.0220 ha         1 HO2       0.171000
     37 H10         -1.1510    -0.6530    -1.0800 ha         1 HO2       0.170000
     38 H09         -0.6420    -3.1160     0.7150 ha         1 HO2       0.165000
     39 H08          1.3390    -3.4430    -0.5390 hc         1 HO2       0.045200
     40 H08A         0.9040    -2.2040    -1.7070 hc         1 HO2       0.045200
     41 H07          1.5540    -0.4200    -0.0590 hc         1 HO2       0.038700
     42 H07A         1.9880    -1.6650     1.1130 hc         1 HO2       0.038700
     43 H06          3.7460    -2.5330    -0.4600 hc         1 HO2       0.033200
     44 H06A         3.3110    -1.2890    -1.6330 hc         1 HO2       0.033200
     45 H05          3.9630     0.4930     0.0150 hc         1 HO2       0.034700
     46 H05A         4.3980    -0.7510     1.1880 hc         1 HO2       0.034700
     47 H04          6.1540    -1.6200    -0.3850 hc         1 HO2       0.023700
     48 H04A         5.7190    -0.3760    -1.5580 hc         1 HO2       0.023700
     49 H03          6.3710     1.4060     0.0910 hc         1 HO2       0.038200
     50 H03A         6.8060     0.1630     1.2630 hc         1 HO2       0.038200
     51 H02          8.5310    -0.7100    -0.2470 hc         1 HO2       0.014200
     52 H02A         8.0770     0.5860    -1.4680 hc         1 HO2       0.014200
@<TRIPOS>BOND
     1     1     2 1   
     2     1    22 1   
     3     1    23 1   
     4     1    24 1   
     5     2     3 1   
     6     2    25 1   
     7     2    26 1   
     8     3     4 1   
     9     3    27 1   
    10     3    28 1   
    11     4     5 1   
    12     4    29 1   
    13     4    30 1   
    14     5     6 1   
    15     5    31 1   
    16     5    32 1   
    17     6     7 1   
    18     6     8 1   
    19     6    33 1   
    20     7    34 1   
    21     8     9 2   
    22     8    35 1   
    23     9    10 1   
    24     9    36 1   
    25    10    11 2   
    26    10    37 1   
    27    11    12 1   
    28    11    38 1   
    29    12    13 1   
    30    12    39 1   
    31    12    40 1   
    32    13    14 1   
    33    13    41 1   
    34    13    42 1   
    35    14    15 1   
    36    14    43 1   
    37    14    44 1   
    38    15    16 1   
    39    15    45 1   
    40    15    46 1   
    41    16    17 1   
    42    16    47 1   
    43    16    48 1   
    44    17    18 1   
    45    17    49 1   
    46    17    50 1   
    47    18    19 1   
    48    18    51 1   
    49    18    52 1   
    50    19    20 1   
    51    19    21 1   
@<TRIPOS>SUBSTRUCTURE
     1 HO2         1 TEMP              0 ****  ****    0 ROOT
