@<TRIPOS>MOLECULE
HO2
   52    51     1     0     0
SMALL
bcc


@<TRIPOS>ATOM
      1 C18         -9.6650     3.4490    -0.2480 c3         1 HO2      -0.088100
      2 C17         -9.2240     2.0390     0.1200 c3         1 HO2      -0.074400
      3 C16         -7.7920     1.7360    -0.3050 c3         1 HO2      -0.077400
      4 C15         -7.3350     0.3300     0.0660 c3         1 HO2      -0.072400
      5 C14         -5.9010     0.0530    -0.3670 c3         1 HO2      -0.109400
      6 C13         -5.3940    -1.3460    -0.0040 c3         1 HO2       0.184300
      7 O21         -5.4650    -1.5960     1.3810 oh         1 HO2      -0.592800
      8 C12         -4.0220    -1.5580    -0.5760 c2         1 HO2      -0.216200
      9 C11         -2.9170    -1.8190     0.1250 ce         1 HO2      -0.105000
     10 C10         -1.5970    -1.9700    -0.4640 ce         1 HO2      -0.160000
     11 C09         -0.4870    -2.1790     0.2510 c2         1 HO2      -0.131200
     12 C08          0.8900    -2.3100    -0.3090 c3         1 HO2      -0.049200
     13 C07          1.8050    -1.1620     0.1250 c3         1 HO2      -0.071400
     14 C06          3.2490    -1.3530    -0.3200 c3         1 HO2      -0.076400
     15 C05          4.1560    -0.1930     0.0740 c3         1 HO2      -0.075400
     16 C04          5.6110    -0.4050    -0.3250 c3         1 HO2      -0.079400
     17 C03          6.5160     0.7670     0.0380 c3         1 HO2      -0.054400
     18 C02          7.9660     0.5300    -0.3490 c3         1 HO2      -0.203400
     19 C01          8.9470     1.6700    -0.0270 c          1 HO2       0.926600
     20 O20          8.5720     2.5500     0.7730 o          1 HO2      -0.848800
     21 O19         10.0640     1.6090    -0.5850 o          1 HO2      -0.848800
     22 H18        -10.6970     3.6360     0.0500 hc         1 HO2       0.030367
     23 H18A        -9.0400     4.1990     0.2400 hc         1 HO2       0.030367
     24 H18B        -9.5980     3.6150    -1.3250 hc         1 HO2       0.030367
     25 H17         -9.3190     1.8960     1.2010 hc         1 HO2       0.036200
     26 H17A        -9.9000     1.3120    -0.3410 hc         1 HO2       0.036200
     27 H16         -7.6980     1.8750    -1.3880 hc         1 HO2       0.037200
     28 H16A        -7.1170     2.4670     0.1540 hc         1 HO2       0.037200
     29 H15         -7.4300     0.1930     1.1470 hc         1 HO2       0.042700
     30 H15A        -8.0030    -0.4050    -0.3980 hc         1 HO2       0.042700
     31 H14         -5.8170     0.1770    -1.4510 hc         1 HO2       0.044700
     32 H14A        -5.2270     0.7980     0.0730 hc         1 HO2       0.044700
     33 H13         -6.0700    -2.0760    -0.4680 h1         1 HO2       0.073700
     34 HO21        -4.9950    -0.8920     1.8420 ho         1 HO2       0.401000
     35 H12         -3.9540    -1.4610    -1.6570 ha         1 HO2       0.123000
     36 H11         -2.9740    -1.9240     1.2050 ha         1 HO2       0.121000
     37 H10         -1.5260    -1.9010    -1.5480 ha         1 HO2       0.120000
     38 H09         -0.5700    -2.2370     1.3340 ha         1 HO2       0.115000
     39 H08          1.3280    -3.2550     0.0300 hc         1 HO2       0.045200
     40 H08A         0.8520    -2.3570    -1.4010 hc         1 HO2       0.045200
     41 H07          1.4130    -0.2230    -0.2790 hc         1 HO2       0.038700
     42 H07A         1.7710    -1.0630     1.2150 hc         1 HO2       0.038700
     43 H06          3.6390    -2.2810     0.1120 hc         1 HO2       0.033200
     44 H06A         3.2840    -1.4870    -1.4070 hc         1 HO2       0.033200
     45 H05          3.7830     0.7300    -0.3850 hc         1 HO2       0.034700
     46 H05A         4.0960    -0.0360     1.1570 hc         1 HO2       0.034700
     47 H04          5.9860    -1.3170     0.1540 hc         1 HO2       0.023700
     48 H04A         5.6680    -0.5900    -1.4040 hc         1 HO2       0.023700
     49 H03          6.1440     1.6720    -0.4520 hc         1 HO2       0.038200
     50 H03A         6.4460     0.9590     1.1130 hc         1 HO2       0.038200
     51 H02          8.3310    -0.3730     0.1570 hc         1 HO2       0.014200
     52 H02A         8.0330     0.2980    -1.4180 hc         1 HO2       0.014200
@<TRIPOS>BOND
     1     1     2 1   
     2     1    22 1   
     3     1    23 1   
     4     1    24 1   
     5     2     3 1   
     6     2    25 1   
     7     2    26 1   
     8     3     4 1   
     9     3    27 1   
    10     3    28 1   
    11     4     5 1   
    12     4    29 1   
    13     4    30 1   
    14     5     6 1   
    15     5    31 1   
    16     5    32 1   
    17     6     7 1   
    18     6     8 1   
    19     6    33 1   
    20     7    34 1   
    21     8     9 2   
    22     8    35 1   
    23     9    10 1   
    24     9    36 1   
    25    10    11 2   
    26    10    37 1   
    27    11    12 1   
    28    11    38 1   
    29    12    13 1   
    30    12    39 1   
    31    12    40 1   
    32    13    14 1   
    33    13    41 1   
    34    13    42 1   
    35    14    15 1   
    36    14    43 1   
    37    14    44 1   
    38    15    16 1   
    39    15    45 1   
    40    15    46 1   
    41    16    17 1   
    42    16    47 1   
    43    16    48 1   
    44    17    18 1   
    45    17    49 1   
    46    17    50 1   
    47    18    19 1   
    48    18    51 1   
    49    18    52 1   
    50    19    20 1   
    51    19    21 1   
@<TRIPOS>SUBSTRUCTURE
     1 HO2         1 TEMP              0 ****  ****    0 ROOT
