@<TRIPOS>MOLECULE
HO4
   35    37     1     0     0
SMALL
abcg2


@<TRIPOS>ATOM
      1 C11         -2.5690    -3.8110     0.5260 c1         1 HO4      -0.256000
      2 C10         -2.0620    -2.7470     0.2730 cg         1 HO4      -0.127300
      3 C7          -1.5080    -1.4780    -0.0120 cc         1 HO4       0.011100
      4 C8          -0.1890    -1.2020    -0.2730 cd         1 HO4      -0.128100
      5 C5          -2.2000    -0.2270    -0.0930 ca         1 HO4      -0.241800
      6 C6          -3.5220     0.2380     0.0540 ca         1 HO4       0.439900
      7 N6          -4.5400    -0.5690     0.3650 nv         1 HO4      -1.071900
      8 N1          -3.7680     1.5420    -0.1080 nb         1 HO4      -0.303000
      9 C2          -2.7560     2.3540    -0.4020 ca         1 HO4       0.181900
     10 N3          -1.4830     2.0460    -0.5640 nb         1 HO4      -0.232000
     11 C4          -1.2500     0.7430    -0.4020 ca         1 HO4       0.147500
     12 N9          -0.0350     0.1360    -0.5060 na         1 HO4      -0.208400
     13 C1           1.2060     0.8500    -0.7930 c5         1 HO4       0.313300
     14 O4           2.1870    -0.0670    -1.1700 os         1 HO4      -0.424000
     15 C13          3.2180    -0.1500    -0.1830 c5         1 HO4       0.126300
     16 C9           3.6400    -1.5810     0.0330 c3         1 HO4       0.163600
     17 O5           4.1990    -2.0850    -1.1530 oh         1 HO4      -0.698000
     18 C3           2.6130     0.5030     1.0630 c5         1 HO4       0.092300
     19 O3           3.5480     1.0620     1.9370 oh         1 HO4      -0.708000
     20 C12          1.7330     1.5840     0.4400 c5         1 HO4       0.142300
     21 O2           2.4900     2.6680    -0.0240 oh         1 HO4      -0.703000
     22 H1          -3.0090    -4.7580     0.7390 ha         1 HO4       0.257000
     23 H2           0.6400    -1.8880    -0.3180 h4         1 HO4       0.230000
     24 H3          -4.4250    -1.5660     0.4150 hn         1 HO4       0.502000
     25 H4          -5.4760    -0.2020     0.3940 hn         1 HO4       0.502000
     26 H5          -3.0160     3.4000    -0.5220 h5         1 HO4       0.045100
     27 H6           0.9950     1.5470    -1.6080 h2         1 HO4       0.129700
     28 H7           4.0840     0.4360    -0.5160 h1         1 HO4       0.091700
     29 H8           4.3640    -1.5860     0.8600 h1         1 HO4       0.019200
     30 H9           2.7780    -2.1750     0.3690 h1         1 HO4       0.019200
     31 H10          4.5070    -2.9800    -0.9820 ho         1 HO4       0.506000
     32 H11          1.9640    -0.2190     1.5780 h1         1 HO4       0.052700
     33 H12          3.8760     0.3810     2.5310 ho         1 HO4       0.518000
     34 H13          0.9240     1.9040     1.1060 h1         1 HO4       0.081700
     35 H14          3.0200     3.0070     0.7060 ho         1 HO4       0.529000
@<TRIPOS>BOND
     1     1     2 3   
     2     1    22 1   
     3     2     3 1   
     4     3     4 2   
     5     3     5 1   
     6     4    12 1   
     7     4    23 1   
     8     5     6 ar  
     9     5    11 ar  
    10     6     7 1   
    11     6     8 ar  
    12     7    24 1   
    13     7    25 1   
    14     8     9 ar  
    15     9    10 ar  
    16     9    26 1   
    17    10    11 ar  
    18    11    12 1   
    19    12    13 1   
    20    13    14 1   
    21    13    20 1   
    22    13    27 1   
    23    14    15 1   
    24    15    16 1   
    25    15    18 1   
    26    15    28 1   
    27    16    17 1   
    28    16    29 1   
    29    16    30 1   
    30    17    31 1   
    31    18    19 1   
    32    18    20 1   
    33    18    32 1   
    34    19    33 1   
    35    20    21 1   
    36    20    34 1   
    37    21    35 1   
@<TRIPOS>SUBSTRUCTURE
     1 HO4         1 TEMP              0 ****  ****    0 ROOT
