@<TRIPOS>MOLECULE
HO4
   35    37     1     0     0
SMALL
No Charge or Current Charge


@<TRIPOS>ATOM
      1 C11         -2.7760    -3.7760     0.5020 c1         1 HO4      -0.256000
      2 C10         -2.2450    -2.7070     0.2760 cg         1 HO4      -0.127300
      3 C7          -1.6570    -1.4430    -0.0010 cc         1 HO4       0.011100
      4 C8          -0.3170    -1.2280    -0.2740 cd         1 HO4      -0.128100
      5 C5          -2.2840    -0.1550    -0.0750 ca         1 HO4      -0.241800
      6 C6          -3.6120     0.2530     0.1030 ca         1 HO4       0.439900
      7 N6          -4.6180    -0.6000     0.4140 nv         1 HO4      -1.071900
      8 N1          -3.9580     1.5400    -0.0340 nb         1 HO4      -0.303000
      9 C2          -2.9550     2.3960    -0.3440 ca         1 HO4       0.181900
     10 N3          -1.6500     2.0800    -0.5280 nb         1 HO4      -0.232000
     11 C4          -1.3270     0.7790    -0.3880 ca         1 HO4       0.147500
     12 N9          -0.0920     0.1540    -0.5130 na         1 HO4      -0.208400
     13 C1           1.1920     0.8070    -0.8100 c5         1 HO4       0.313300
     14 O4           2.1790    -0.2070    -1.1480 os         1 HO4      -0.424000
     15 C13          3.2730    -0.1480    -0.1960 c5         1 HO4       0.126300
     16 C9           3.8690    -1.5630     0.0440 c3         1 HO4       0.163600
     17 O5           4.5880    -2.0320    -1.1100 oh         1 HO4      -0.698000
     18 C3           2.6480     0.5220     1.0670 c5         1 HO4       0.092300
     19 O3           3.6210     1.1020     1.9570 oh         1 HO4      -0.708000
     20 C12          1.7960     1.6260     0.3840 c5         1 HO4       0.142300
     21 O2           2.6490     2.7120    -0.0160 oh         1 HO4      -0.703000
     22 H1          -3.2350    -4.7240     0.7030 ha         1 HO4       0.257000
     23 H2           0.4860    -1.9580    -0.3190 h4         1 HO4       0.230000
     24 H3          -4.4270    -1.5950     0.3300 hn         1 HO4       0.502000
     25 H4          -5.5750    -0.2980     0.2580 hn         1 HO4       0.502000
     26 H5          -3.2240     3.4440    -0.4570 h5         1 HO4       0.045100
     27 H6           1.0050     1.4650    -1.6680 h2         1 HO4       0.129700
     28 H7           4.0620     0.4930    -0.6150 h1         1 HO4       0.091700
     29 H8           4.5460    -1.5150     0.9070 h1         1 HO4       0.019200
     30 H9           3.0550    -2.2550     0.2990 h1         1 HO4       0.019200
     31 H10          4.8910    -2.9480    -0.9080 ho         1 HO4       0.506000
     32 H11          1.9990    -0.1860     1.6040 h1         1 HO4       0.052700
     33 H12          3.8870     0.4060     2.6070 ho         1 HO4       0.518000
     34 H13          1.0040     1.9880     1.0560 h1         1 HO4       0.081700
     35 H14          3.3790     2.6770     0.6530 ho         1 HO4       0.529000
@<TRIPOS>BOND
     1     1     2 3   
     2     1    22 1   
     3     2     3 1   
     4     3     4 2   
     5     3     5 1   
     6     4    12 1   
     7     4    23 1   
     8     5     6 ar  
     9     5    11 ar  
    10     6     7 1   
    11     6     8 ar  
    12     7    24 1   
    13     7    25 1   
    14     8     9 ar  
    15     9    10 ar  
    16     9    26 1   
    17    10    11 ar  
    18    11    12 1   
    19    12    13 1   
    20    13    14 1   
    21    13    20 1   
    22    13    27 1   
    23    14    15 1   
    24    15    16 1   
    25    15    18 1   
    26    15    28 1   
    27    16    17 1   
    28    16    29 1   
    29    16    30 1   
    30    17    31 1   
    31    18    19 1   
    32    18    20 1   
    33    18    32 1   
    34    19    33 1   
    35    20    21 1   
    36    20    34 1   
    37    21    35 1   
@<TRIPOS>SUBSTRUCTURE
     1 HO4         1 TEMP              0 ****  ****    0 ROOT
