@<TRIPOS>MOLECULE
HO5
   61    65     1     0     0
SMALL
No Charge or Current Charge


@<TRIPOS>ATOM
      1 CAA         -0.6670     3.7650    -0.9590 ca         1 HO5      -0.101000
      2 CAB          0.6990     3.4300    -0.8910 ca         1 HO5      -0.083300
      3 CAC          1.0820     2.1640    -0.3860 ca         1 HO5       0.296000
      4 CAD          0.0840     1.2740     0.0640 ca         1 HO5      -0.051000
      5 CAE         -1.2900     1.6010    -0.0040 ca         1 HO5      -0.145600
      6 CAF         -1.6530     2.8640    -0.5270 ca         1 HO5      -0.097000
      7 CAG         -2.3180     0.5950     0.4850 c          1 HO5       0.624700
      8 CAJ         -4.8710     0.3590     0.7440 ca         1 HO5      -0.019000
      9 CAK         -6.0580     1.0930     0.5540 ca         1 HO5      -0.126000
     10 CAL         -7.3200     0.5410     0.8660 ca         1 HO5      -0.166300
     11 CAM         -7.3820    -0.7780     1.3630 ca         1 HO5      -0.090000
     12 CAN         -6.2060    -1.5180     1.5550 ca         1 HO5      -0.090000
     13 CAO         -4.9550    -0.9570     1.2500 ca         1 HO5      -0.105000
     14 CAP          1.7350     4.4430    -1.3780 c3         1 HO5      -0.054800
     15 CAR          3.1620     0.6530    -0.3540 ca         1 HO5       0.454900
     16 CAT          3.2670    -1.6210    -0.6500 ca         1 HO5       0.323500
     17 CAV          5.1500    -0.3690    -0.2100 ca         1 HO5       0.460900
     18 CAZ          3.2850    -3.9390    -1.4320 cc         1 HO5       0.435400
     19 CBB          1.2010    -4.4420    -1.0670 cd         1 HO5       0.226900
     20 CBC          1.3250    -3.1360    -0.6600 cc         1 HO5      -0.183000
     21 CBD          7.4390    -1.5010    -0.0500 c5         1 HO5       0.238800
     22 CBE          8.8330    -0.8320    -0.1690 c5         1 HO5      -0.094400
     23 CBF          8.6970     0.3870     0.7800 c5         1 HO5       0.151300
     24 CBG          7.2860     0.9280     0.3590 c5         1 HO5       0.194800
     25 CBI         -8.6020     1.3560     0.6420 c3         1 HO5       0.356300
     26 FBJ         -9.0510     1.2250    -0.6270 f          1 HO5      -0.113667
     27 FBK         -9.6100     0.9710     1.4590 f          1 HO5      -0.113667
     28 FBL         -8.4140     2.6780     0.8610 f          1 HO5      -0.113667
     29 NAH         -3.6460     0.9990     0.4030 ns         1 HO5      -0.145000
     30 NAQ          2.4460     1.8330    -0.3100 nu         1 HO5      -0.934900
     31 NAS          2.5200    -0.4940    -0.6080 nb         1 HO5      -0.327000
     32 NAU          4.6040    -1.5750    -0.4500 nb         1 HO5      -0.332000
     33 NAW          4.4710     0.7840    -0.1530 nb         1 HO5      -0.365000
     34 NAX          2.6480    -2.8460    -0.9010 na         1 HO5      -0.195000
     35 NAY          6.5420    -0.3140    -0.0070 nh         1 HO5      -0.757300
     36 NBA          2.4100    -4.9350    -1.5430 nd         1 HO5      -0.671000
     37 OAI         -1.9730    -0.4980     0.9210 o          1 HO5      -0.572100
     38 H1          -0.9720     4.7330    -1.3520 ha         1 HO5       0.119000
     39 H2           0.3800     0.3220     0.4910 ha         1 HO5       0.159000
     40 H3          -2.6940     3.1700    -0.6040 ha         1 HO5       0.116000
     41 H4          -5.9980     2.1040     0.1560 ha         1 HO5       0.124000
     42 H5          -8.3410    -1.2360     1.6000 ha         1 HO5       0.133000
     43 H6          -6.2630    -2.5340     1.9400 ha         1 HO5       0.124000
     44 H7          -4.0690    -1.5640     1.4100 ha         1 HO5       0.155000
     45 H8           2.3790     4.7760    -0.5550 hc         1 HO5       0.048367
     46 H9           2.3740     4.0130    -2.1590 hc         1 HO5       0.048367
     47 H10          1.2630     5.3370    -1.8030 hc         1 HO5       0.048367
     48 H11          4.3330    -3.9510    -1.7090 h5         1 HO5       0.072100
     49 H12          0.3100    -5.0580    -1.0450 h4         1 HO5       0.041100
     50 H13          0.6060    -2.4430    -0.2410 h4         1 HO5       0.176000
     51 H14          7.2380    -2.1580    -0.9080 h1         1 HO5       0.068200
     52 H15          7.3550    -2.0960     0.8710 h1         1 HO5       0.068200
     53 H16          9.6460    -1.5070     0.1160 hc         1 HO5       0.067200
     54 H17          9.0240    -0.5080    -1.1990 hc         1 HO5       0.067200
     55 H18          9.4750     1.1360     0.5710 h1         1 HO5       0.051700
     56 H19          6.8070     1.4800     1.1790 h1         1 HO5       0.063200
     57 H20          7.3680     1.6030    -0.5050 h1         1 HO5       0.063200
     58 H21         -3.7690     1.9290     0.0280 hn         1 HO5       0.156000
     59 H22          3.0640     2.6400    -0.3320 hn         1 HO5       0.516000
     60 OBH          8.7740    -0.0110     2.1590 oh         1 HO5      -0.650000
     61 H23          8.6100     0.7920     2.7000 ho         1 HO5       0.446000
@<TRIPOS>BOND
     1     1     2 ar  
     2     1     6 ar  
     3     1    38 1   
     4     2     3 ar  
     5     2    14 1   
     6     3     4 ar  
     7     3    30 1   
     8     4     5 ar  
     9     4    39 1   
    10     5     6 ar  
    11     5     7 1   
    12     6    40 1   
    13     7    29 1   
    14     7    37 2   
    15     8     9 ar  
    16     8    13 ar  
    17     8    29 1   
    18     9    10 ar  
    19     9    41 1   
    20    10    11 ar  
    21    10    25 1   
    22    11    12 ar  
    23    11    42 1   
    24    12    13 ar  
    25    12    43 1   
    26    13    44 1   
    27    14    45 1   
    28    14    46 1   
    29    14    47 1   
    30    15    30 1   
    31    15    31 ar  
    32    15    33 ar  
    33    16    31 ar  
    34    16    32 ar  
    35    16    34 1   
    36    17    32 ar  
    37    17    33 ar  
    38    17    35 1   
    39    18    34 1   
    40    18    36 2   
    41    18    48 1   
    42    19    20 2   
    43    19    36 1   
    44    19    49 1   
    45    20    34 1   
    46    20    50 1   
    47    21    22 1   
    48    21    35 1   
    49    21    51 1   
    50    21    52 1   
    51    22    23 1   
    52    22    53 1   
    53    22    54 1   
    54    23    24 1   
    55    23    55 1   
    56    23    60 1   
    57    24    35 1   
    58    24    56 1   
    59    24    57 1   
    60    25    26 1   
    61    25    27 1   
    62    25    28 1   
    63    29    58 1   
    64    30    59 1   
    65    60    61 1   
@<TRIPOS>SUBSTRUCTURE
     1 HO5         1 TEMP              0 ****  ****    0 ROOT
