@<TRIPOS>MOLECULE
HO5
   61    65     1     0     0
SMALL
abcg2


@<TRIPOS>ATOM
      1 CAA         -0.5460     3.9540    -0.6490 ca         1 HO5      -0.101000
      2 CAB          0.8020     3.6190    -0.6010 ca         1 HO5      -0.083300
      3 CAC          1.1590     2.4000    -0.0050 ca         1 HO5       0.296000
      4 CAD          0.1840     1.5650     0.5240 ca         1 HO5      -0.051000
      5 CAE         -1.1630     1.9000     0.4300 ca         1 HO5      -0.145600
      6 CAF         -1.5260     3.1110    -0.1530 ca         1 HO5      -0.097000
      7 CAG         -2.1490     0.9500     1.0250 c          1 HO5       0.624700
      8 CAJ         -4.5550     0.3350     0.8780 ca         1 HO5      -0.019000
      9 CAK         -5.7030     0.5930     0.1260 ca         1 HO5      -0.126000
     10 CAL         -6.9000    -0.0330     0.4310 ca         1 HO5      -0.166300
     11 CAM         -6.9790    -0.9320     1.4880 ca         1 HO5      -0.090000
     12 CAN         -5.8380    -1.1830     2.2320 ca         1 HO5      -0.090000
     13 CAO         -4.6300    -0.5660     1.9420 ca         1 HO5      -0.105000
     14 CAP          1.8380     4.5400    -1.1690 c3         1 HO5      -0.054800
     15 CAR          3.1120     0.8820    -0.1180 ca         1 HO5       0.454900
     16 CAT          3.0300    -1.2810    -0.6000 ca         1 HO5       0.323500
     17 CAV          5.0050    -0.3250    -0.2240 ca         1 HO5       0.460900
     18 CAZ          2.7600    -3.6660    -1.1510 cc         1 HO5       0.435400
     19 CBB          0.6360    -3.7810    -1.3100 cd         1 HO5       0.226900
     20 CBC          0.9030    -2.4850    -1.0070 cc         1 HO5      -0.183000
     21 CBD          7.0760    -1.6350    -0.4110 c5         1 HO5       0.238800
     22 CBE          8.5170    -1.1370    -0.4570 c5         1 HO5      -0.094400
     23 CBF          8.5250     0.0330     0.5150 c5         1 HO5       0.151300
     24 CBG          7.1860     0.7050     0.2190 c5         1 HO5       0.194800
     25 CBI         -8.1020     0.2260    -0.4230 c3         1 HO5       0.356300
     26 FBJ         -8.1470    -0.6070    -1.4740 f          1 HO5      -0.113667
     27 FBK         -9.2450     0.0590     0.2500 f          1 HO5      -0.113667
     28 FBL         -8.1170     1.4690    -0.9180 f          1 HO5      -0.113667
     29 NAH         -3.4020     1.0260     0.5030 ns         1 HO5      -0.145000
     30 NAQ          2.5220     2.0820     0.0810 nu         1 HO5      -0.934900
     31 NAS          2.3470    -0.1690    -0.4210 nb         1 HO5      -0.327000
     32 NAU          4.3270    -1.4500    -0.5230 nb         1 HO5      -0.332000
     33 NAW          4.4340     0.8640    -0.0090 nb         1 HO5      -0.365000
     34 NAX          2.2750    -2.4130    -0.9050 na         1 HO5      -0.195000
     35 NAY          6.3270    -0.4130    -0.1390 nh         1 HO5      -0.757300
     36 NBA          1.8010    -4.5060    -1.3980 nd         1 HO5      -0.671000
     37 OAI         -1.8270     0.1690     1.9030 o          1 HO5      -0.572100
     38 H1          -0.8370     4.8980    -1.0920 ha         1 HO5       0.119000
     39 H2           0.4700     0.6450     1.0100 ha         1 HO5       0.159000
     40 H3          -2.5580     3.4310    -0.2030 ha         1 HO5       0.116000
     41 H4          -5.6460     1.2970    -0.6960 ha         1 HO5       0.124000
     42 H5          -7.9050    -1.4310     1.7380 ha         1 HO5       0.133000
     43 H6          -5.8840    -1.8770     3.0600 ha         1 HO5       0.124000
     44 H7          -3.7660    -0.7900     2.5440 ha         1 HO5       0.155000
     45 H8           2.4830     4.9550    -0.3900 hc         1 HO5       0.048367
     46 H9           2.4850     4.0290    -1.8840 hc         1 HO5       0.048367
     47 H10          1.3710     5.3800    -1.6790 hc         1 HO5       0.048367
     48 H11          3.8150    -3.8830    -1.1350 h5         1 HO5       0.072100
     49 H12         -0.3300    -4.2340    -1.4710 h4         1 HO5       0.041100
     50 H13          0.2700    -1.6290    -0.8590 h4         1 HO5       0.176000
     51 H14          6.7600    -2.0880    -1.3490 h1         1 HO5       0.068200
     52 H15          6.9230    -2.3700     0.3830 h1         1 HO5       0.068200
     53 H16          9.2410    -1.9100    -0.2020 hc         1 HO5       0.067200
     54 H17          8.7560    -0.7710    -1.4570 hc         1 HO5       0.067200
     55 H18          9.3540     0.7250     0.3320 h1         1 HO5       0.051700
     56 H19          6.7920     1.2560     1.0740 h1         1 HO5       0.063200
     57 H20          7.2840     1.4090    -0.6130 h1         1 HO5       0.063200
     58 H21         -3.5210     1.6310    -0.2950 hn         1 HO5       0.156000
     59 H22          3.1700     2.8450     0.2060 hn         1 HO5       0.516000
     60 OBH          8.5730    -0.4950     1.8230 oh         1 HO5      -0.650000
     61 H23          8.5310     0.2340     2.4490 ho         1 HO5       0.446000
@<TRIPOS>BOND
     1     1     2 ar  
     2     1     6 ar  
     3     1    38 1   
     4     2     3 ar  
     5     2    14 1   
     6     3     4 ar  
     7     3    30 1   
     8     4     5 ar  
     9     4    39 1   
    10     5     6 ar  
    11     5     7 1   
    12     6    40 1   
    13     7    29 1   
    14     7    37 2   
    15     8     9 ar  
    16     8    13 ar  
    17     8    29 1   
    18     9    10 ar  
    19     9    41 1   
    20    10    11 ar  
    21    10    25 1   
    22    11    12 ar  
    23    11    42 1   
    24    12    13 ar  
    25    12    43 1   
    26    13    44 1   
    27    14    45 1   
    28    14    46 1   
    29    14    47 1   
    30    15    30 1   
    31    15    31 ar  
    32    15    33 ar  
    33    16    31 ar  
    34    16    32 ar  
    35    16    34 1   
    36    17    32 ar  
    37    17    33 ar  
    38    17    35 1   
    39    18    34 1   
    40    18    36 2   
    41    18    48 1   
    42    19    20 2   
    43    19    36 1   
    44    19    49 1   
    45    20    34 1   
    46    20    50 1   
    47    21    22 1   
    48    21    35 1   
    49    21    51 1   
    50    21    52 1   
    51    22    23 1   
    52    22    53 1   
    53    22    54 1   
    54    23    24 1   
    55    23    55 1   
    56    23    60 1   
    57    24    35 1   
    58    24    56 1   
    59    24    57 1   
    60    25    26 1   
    61    25    27 1   
    62    25    28 1   
    63    29    58 1   
    64    30    59 1   
    65    60    61 1   
@<TRIPOS>SUBSTRUCTURE
     1 HO5         1 TEMP              0 ****  ****    0 ROOT
