@<TRIPOS>MOLECULE
HO7
   26    28     1     0     0
SMALL
bcc


@<TRIPOS>ATOM
      1 C10          0.9290    -1.8430    -0.4350 ca         1 HO7      -0.113000
      2 C13          1.7740     0.7720    -0.0570 ca         1 HO7      -0.104500
      3 C01         -4.3560    -0.0830     1.6210 c5         1 HO7       0.200800
      4 C02         -5.4590     0.5520     0.7800 c5         1 HO7      -0.016300
      5 C04         -3.3100     0.0380    -0.4810 c2         1 HO7       0.574100
      6 C06         -1.4850    -1.1440    -0.4280 c5         1 HO7       0.145800
      7 C07         -2.1530    -1.2160     0.9710 c5         1 HO7       0.168800
      8 C09         -0.0160    -0.8280    -0.3550 ca         1 HO7      -0.061300
      9 C11          2.2870    -1.5730    -0.3240 ca         1 HO7      -0.104500
     10 C12          2.6960    -0.2620    -0.1350 ca         1 HO7      -0.014900
     11 C14          0.4230     0.4790    -0.1670 ca         1 HO7      -0.113000
     12 N05         -2.2520    -0.1310    -1.1630 n2         1 HO7      -0.581900
     13 N08         -3.4770    -0.7070     0.6590 nh         1 HO7      -0.749600
     14 S03         -4.6260     1.1560    -0.7360 ss         1 HO7      -0.178300
     15 BR1          4.5400     0.1250     0.0120 br         1 HO7      -0.101100
     16 H1           0.6100    -2.8670    -0.5920 ha         1 HO7       0.138500
     17 H2           2.0930     1.7950     0.0880 ha         1 HO7       0.147500
     18 H4          -4.7790    -0.8170     2.3050 h1         1 HO7       0.057700
     19 H5          -6.2210    -0.1730     0.5010 h1         1 HO7       0.083700
     20 H6          -5.9320     1.3890     1.2870 h1         1 HO7       0.083700
     21 H7          -1.6030    -2.1110    -0.9320 h1         1 HO7       0.080700
     22 H8          -2.1790    -2.2270     1.3740 h1         1 HO7       0.056700
     23 H9          -1.6470    -0.5640     1.6950 h1         1 HO7       0.056700
     24 H10          3.0040    -2.3790    -0.3900 ha         1 HO7       0.147500
     25 H11         -0.2960     1.2860    -0.1080 ha         1 HO7       0.138500
     26 H3          -3.8290     0.6770     2.2110 h1         1 HO7       0.057700
@<TRIPOS>BOND
     1     1     8 ar  
     2     1     9 ar  
     3     1    16 1   
     4     2    10 ar  
     5     2    11 ar  
     6     2    17 1   
     7     3     4 1   
     8     3    13 1   
     9     3    18 1   
    10     3    26 1   
    11     4    14 1   
    12     4    19 1   
    13     4    20 1   
    14     5    12 2   
    15     5    13 1   
    16     5    14 1   
    17     6     7 1   
    18     6     8 1   
    19     6    12 1   
    20     6    21 1   
    21     7    13 1   
    22     7    22 1   
    23     7    23 1   
    24     8    11 ar  
    25     9    10 ar  
    26     9    24 1   
    27    10    15 1   
    28    11    25 1   
@<TRIPOS>SUBSTRUCTURE
     1 HO7         1 TEMP              0 ****  ****    0 ROOT
