@<TRIPOS>MOLECULE
HO7
   26    28     1     0     0
SMALL
No Charge or Current Charge


@<TRIPOS>ATOM
      1 C10          0.9260    -1.8670    -0.5140 ca         1 HO7      -0.095000
      2 C13          1.7190     0.7580     0.0930 ca         1 HO7      -0.086500
      3 C01         -4.2330     0.0280     1.6150 c5         1 HO7       0.200800
      4 C02         -5.4410     0.5670     0.8020 c5         1 HO7       0.031600
      5 C04         -3.4140    -0.0920    -0.5900 c2         1 HO7       0.574100
      6 C06         -1.5380    -1.2210    -0.5060 c5         1 HO7       0.145800
      7 C07         -2.1510    -1.2150     0.9370 c5         1 HO7       0.168800
      8 C09         -0.0560    -0.8680    -0.3530 ca         1 HO7      -0.061300
      9 C11          2.2910    -1.5600    -0.3720 ca         1 HO7      -0.086500
     10 C12          2.6850    -0.2470    -0.0690 ca         1 HO7      -0.014900
     11 C14          0.3550     0.4480    -0.0490 ca         1 HO7      -0.095000
     12 N05         -2.3460    -0.2280    -1.2820 n2         1 HO7      -0.581900
     13 N08         -3.5110    -0.7710     0.5920 nh         1 HO7      -0.749600
     14 S03         -4.6920     1.1230    -0.8020 ss         1 HO7      -0.226200
     15 Br1          4.5410     0.1720     0.1240 br         1 HO7      -0.101100
     16 H1           0.6320    -2.8880    -0.7480 ha         1 HO7       0.120500
     17 H2           2.0240     1.7750     0.3280 ha         1 HO7       0.129500
     18 H4          -4.5470    -0.5780     2.4760 h1         1 HO7       0.057700
     19 H5          -6.1640    -0.2350     0.6040 h1         1 HO7       0.083700
     20 H6          -5.9590     1.3920     1.3070 h1         1 HO7       0.083700
     21 H7          -1.6510    -2.2130    -0.9660 h1         1 HO7       0.080700
     22 H8          -2.1270    -2.2020     1.4180 h1         1 HO7       0.056700
     23 H9          -1.6460    -0.4880     1.5900 h1         1 HO7       0.056700
     24 H10          3.0400    -2.3390    -0.4980 ha         1 HO7       0.129500
     25 H11         -0.3860     1.2350     0.0790 ha         1 HO7       0.120500
     26 H3          -3.6140     0.8580     1.9850 h1         1 HO7       0.057700
@<TRIPOS>BOND
     1     1     8 ar  
     2     1     9 ar  
     3     1    16 1   
     4     2    10 ar  
     5     2    11 ar  
     6     2    17 1   
     7     3     4 1   
     8     3    13 1   
     9     3    18 1   
    10     3    26 1   
    11     4    14 1   
    12     4    19 1   
    13     4    20 1   
    14     5    12 2   
    15     5    13 1   
    16     5    14 1   
    17     6     7 1   
    18     6     8 1   
    19     6    12 1   
    20     6    21 1   
    21     7    13 1   
    22     7    22 1   
    23     7    23 1   
    24     8    11 ar  
    25     9    10 ar  
    26     9    24 1   
    27    10    15 1   
    28    11    25 1   
@<TRIPOS>SUBSTRUCTURE
     1 HO7         1 TEMP              0 ****  ****    0 ROOT
