@<TRIPOS>MOLECULE
HO8
   61    65     1     0     0
SMALL
abcg2


@<TRIPOS>ATOM
      1 CAA         -0.4530     3.9450    -0.4730 ca         1 HO8      -0.101000
      2 CAB          0.8830     3.5870    -0.3340 ca         1 HO8      -0.081300
      3 CAC          1.1780     2.3560     0.2710 ca         1 HO8       0.295000
      4 CAD          0.1550     1.5330     0.7240 ca         1 HO8      -0.051000
      5 CAE         -1.1760     1.8910     0.5380 ca         1 HO8      -0.145600
      6 CAF         -1.4780     3.1120    -0.0580 ca         1 HO8      -0.096000
      7 CAG         -2.2170     0.9550     1.0590 c          1 HO8       0.624700
      8 CAJ         -4.6100     0.3620     0.7310 ca         1 HO8      -0.020000
      9 CAK         -5.6910     0.6220    -0.1140 ca         1 HO8      -0.125000
     10 CAL         -6.9130     0.0060     0.0970 ca         1 HO8      -0.166300
     11 CAM         -7.0830    -0.8840     1.1510 ca         1 HO8      -0.090000
     12 CAN         -6.0090    -1.1370     1.9860 ca         1 HO8      -0.089000
     13 CAO         -4.7770    -0.5290     1.7920 ca         1 HO8      -0.105000
     14 CAP          1.9720     4.4980    -0.8100 c3         1 HO8      -0.055800
     15 CAR          3.1090     0.8050     0.2980 ca         1 HO8       0.457900
     16 CAT          3.0350    -1.3570    -0.1740 ca         1 HO8       0.325500
     17 CAV          4.9920    -0.4280     0.3580 ca         1 HO8       0.469900
     18 CAY          2.7790    -3.7420    -0.7340 cc         1 HO8       0.434400
     19 CBA          0.6740    -3.8290    -1.0620 cd         1 HO8       0.227900
     20 CBB          0.9330    -2.5360    -0.7460 cc         1 HO8      -0.182000
     21 CBD          7.1470     0.5940     0.9270 c6         1 HO8       0.186300
     22 CBE          8.3010     0.7100    -0.0540 c6         1 HO8       0.133100
     23 CBG          8.2070    -1.5640    -0.5510 c6         1 HO8       0.133100
     24 CBH          7.0460    -1.7750     0.4070 c6         1 HO8       0.186300
     25 CBI         -8.0490     0.2580    -0.8450 c3         1 HO8       0.356300
     26 FBJ         -7.9290     1.4170    -1.4990 f          1 HO8      -0.113667
     27 FBK         -8.1350    -0.7050    -1.7760 f          1 HO8      -0.113667
     28 FBL         -9.2280     0.2840    -0.2130 f          1 HO8      -0.113667
     29 NAH         -3.4260     1.0430     0.4440 ns         1 HO8      -0.144000
     30 NAQ          2.5260     2.0150     0.4470 nu         1 HO8      -0.932900
     31 NAS          2.3540    -0.2350    -0.0640 nb         1 HO8      -0.323000
     32 NAU          4.3180    -1.5410     0.0140 nb         1 HO8      -0.339000
     33 NAW          4.4160     0.7650     0.5180 nb         1 HO8      -0.367000
     34 NAX          2.2930    -2.4820    -0.5340 na         1 HO8      -0.196000
     35 NAZ          1.8320    -4.5710    -1.0520 nd         1 HO8      -0.669000
     36 NBC          6.3100    -0.5330     0.5560 nh         1 HO8      -0.762300
     37 OAI         -1.9700     0.1740     1.9600 o          1 HO8      -0.571100
     38 OBF          9.0300    -0.4940    -0.1440 os         1 HO8      -0.443000
     39 H1          -0.6970     4.8990    -0.9230 ha         1 HO8       0.120000
     40 H2           0.3920     0.6060     1.2210 ha         1 HO8       0.158000
     41 H3          -2.5000     3.4490    -0.1780 ha         1 HO8       0.116000
     42 H4          -5.5620     1.3190    -0.9330 ha         1 HO8       0.124000
     43 H5          -8.0310    -1.3740     1.3280 ha         1 HO8       0.132000
     44 H6          -6.1260    -1.8240     2.8130 ha         1 HO8       0.124000
     45 H7          -3.9670    -0.7540     2.4630 ha         1 HO8       0.154000
     46 H8           2.5710     4.8830     0.0190 hc         1 HO8       0.049033
     47 H9           2.6560     3.9880    -1.4910 hc         1 HO8       0.049033
     48 H10          1.5590     5.3580    -1.3340 hc         1 HO8       0.049033
     49 H12         -0.2820    -4.2710    -1.2970 h4         1 HO8       0.042100
     50 H13          0.3010    -1.6710    -0.6530 h4         1 HO8       0.177000
     51 H14          7.5290     0.4360     1.9420 h1         1 HO8       0.074950
     52 H15          6.5610     1.5080     0.9270 h1         1 HO8       0.074950
     53 H16          7.9100     0.9980    -1.0400 h1         1 HO8       0.057450
     54 H17          8.9900     1.4870     0.2770 h1         1 HO8       0.057450
     55 H18          8.8250    -2.4620    -0.5800 h1         1 HO8       0.057450
     56 H19          7.8150    -1.3890    -1.5630 h1         1 HO8       0.057450
     57 H20          6.3920    -2.5570     0.0300 h1         1 HO8       0.074950
     58 H21          7.4200    -2.0870     1.3880 h1         1 HO8       0.074950
     59 H22         -3.4780     1.6440    -0.3640 hn         1 HO8       0.156000
     60 H23          3.1750     2.7650     0.6360 hn         1 HO8       0.517000
     61 H11          3.8260    -3.9750    -0.6300 h5         1 HO8       0.070100
@<TRIPOS>BOND
     1     1     2 ar  
     2     1     6 ar  
     3     1    39 1   
     4     2     3 ar  
     5     2    14 1   
     6     3     4 ar  
     7     3    30 1   
     8     4     5 ar  
     9     4    40 1   
    10     5     6 ar  
    11     5     7 1   
    12     6    41 1   
    13     7    29 1   
    14     7    37 2   
    15     8     9 ar  
    16     8    13 ar  
    17     8    29 1   
    18     9    10 ar  
    19     9    42 1   
    20    10    11 ar  
    21    10    25 1   
    22    11    12 ar  
    23    11    43 1   
    24    12    13 ar  
    25    12    44 1   
    26    13    45 1   
    27    14    46 1   
    28    14    47 1   
    29    14    48 1   
    30    15    30 1   
    31    15    31 ar  
    32    15    33 ar  
    33    16    31 ar  
    34    16    32 ar  
    35    16    34 1   
    36    17    32 ar  
    37    17    33 ar  
    38    17    36 1   
    39    18    34 1   
    40    18    35 2   
    41    18    61 1   
    42    19    20 2   
    43    19    35 1   
    44    19    49 1   
    45    20    34 1   
    46    20    50 1   
    47    21    22 1   
    48    21    36 1   
    49    21    51 1   
    50    21    52 1   
    51    22    38 1   
    52    22    53 1   
    53    22    54 1   
    54    23    24 1   
    55    23    38 1   
    56    23    55 1   
    57    23    56 1   
    58    24    36 1   
    59    24    57 1   
    60    24    58 1   
    61    25    26 1   
    62    25    27 1   
    63    25    28 1   
    64    29    59 1   
    65    30    60 1   
@<TRIPOS>SUBSTRUCTURE
     1 HO8         1 TEMP              0 ****  ****    0 ROOT
