@<TRIPOS>MOLECULE
HO8
   61    65     1     0     0
SMALL
No Charge or Current Charge


@<TRIPOS>ATOM
      1 CAA         -0.6510     3.7490    -0.9190 ca         1 HO8      -0.101000
      2 CAB          0.7100     3.4090    -0.8000 ca         1 HO8      -0.081300
      3 CAC          1.0700     2.1480    -0.2670 ca         1 HO8       0.295000
      4 CAD          0.0540     1.2680     0.1590 ca         1 HO8      -0.051000
      5 CAE         -1.3160     1.5990     0.0410 ca         1 HO8      -0.145600
      6 CAF         -1.6550     2.8570    -0.5100 ca         1 HO8      -0.096000
      7 CAG         -2.3640     0.6030     0.5080 c          1 HO8       0.624700
      8 CAJ         -4.9250     0.3810     0.6820 ca         1 HO8      -0.020000
      9 CAK         -6.1020     1.1210     0.4550 ca         1 HO8      -0.125000
     10 CAL         -7.3760     0.5780     0.7310 ca         1 HO8      -0.166300
     11 CAM         -7.4610    -0.7380     1.2290 ca         1 HO8      -0.090000
     12 CAN         -6.2950    -1.4860     1.4580 ca         1 HO8      -0.089000
     13 CAO         -5.0320    -0.9330     1.1890 ca         1 HO8      -0.105000
     14 CAP          1.7670     4.4120    -1.2640 c3         1 HO8      -0.055800
     15 CAR          3.1410     0.6280    -0.1470 ca         1 HO8       0.457900
     16 CAT          3.2470    -1.6470    -0.4160 ca         1 HO8       0.325500
     17 CAV          5.1230    -0.3980     0.0810 ca         1 HO8       0.469900
     18 CAY          3.2830    -3.9700    -1.1800 cc         1 HO8       0.434400
     19 CBA          1.1890    -4.4670    -0.8730 cd         1 HO8       0.227900
     20 CBB          1.3030    -3.1580    -0.4710 cc         1 HO8      -0.182000
     21 CBD          7.1660     0.9080     0.8660 c6         1 HO8       0.186300
     22 CBE          8.7020     0.9530     0.6170 c6         1 HO8       0.133100
     23 CBG          8.8360    -1.4270     0.3560 c6         1 HO8       0.133100
     24 CBH          7.3080    -1.6070     0.5900 c6         1 HO8       0.186300
     25 CBI         -8.6460     1.4000     0.4660 c3         1 HO8       0.356300
     26 FBJ         -8.4560     2.7220     0.6850 f          1 HO8      -0.113667
     27 FBK         -9.0580     1.2670    -0.8140 f          1 HO8      -0.113667
     28 FBL         -9.6790     1.0250     1.2550 f          1 HO8      -0.113667
     29 NAH         -3.6860     1.0120     0.3760 ns         1 HO8      -0.144000
     30 NAQ          2.4290     1.8120    -0.1410 nu         1 HO8      -0.932900
     31 NAS          2.5030    -0.5180    -0.4120 nb         1 HO8      -0.323000
     32 NAU          4.5760    -1.6030    -0.1680 nb         1 HO8      -0.339000
     33 NAW          4.4420     0.7560     0.0990 nb         1 HO8      -0.367000
     34 NAX          2.6340    -2.8720    -0.6760 na         1 HO8      -0.196000
     35 NAZ          2.4100    -4.9640    -1.3100 nd         1 HO8      -0.669000
     36 NBC          6.5190    -0.3460     0.3320 nh         1 HO8      -0.762300
     37 OAI         -2.0380    -0.4860     0.9670 o          1 HO8      -0.571100
     38 OBF          9.3350    -0.2680     1.0590 os         1 HO8      -0.443000
     39 H1          -0.9380     4.7130    -1.3340 ha         1 HO8       0.120000
     40 H2           0.3310     0.3200     0.6080 ha         1 HO8       0.158000
     41 H3          -2.6910     3.1660    -0.6260 ha         1 HO8       0.116000
     42 H4          -6.0230     2.1310     0.0560 ha         1 HO8       0.124000
     43 H5          -8.4290    -1.1900     1.4380 ha         1 HO8       0.132000
     44 H6          -6.3710    -2.5010     1.8440 ha         1 HO8       0.124000
     45 H7          -4.1560    -1.5450     1.3760 ha         1 HO8       0.154000
     46 H8           2.3830     4.7540    -0.4240 hc         1 HO8       0.049033
     47 H9           2.4310     3.9690    -2.0160 hc         1 HO8       0.049033
     48 H10          1.3140     5.3020    -1.7170 hc         1 HO8       0.049033
     49 H12          0.2960    -5.0800    -0.8720 h4         1 HO8       0.042100
     50 H13          0.5730    -2.4610    -0.0780 h4         1 HO8       0.177000
     51 H14          6.9840     0.9910     1.9470 h1         1 HO8       0.074950
     52 H15          6.7370     1.8060     0.3970 h1         1 HO8       0.074950
     53 H16          8.9010     1.0950    -0.4550 h1         1 HO8       0.057450
     54 H17          9.1410     1.8040     1.1580 h1         1 HO8       0.057450
     55 H18          9.3730    -2.3200     0.7060 h1         1 HO8       0.057450
     56 H19          9.0360    -1.3120    -0.7190 h1         1 HO8       0.057450
     57 H20          6.9750    -2.4240    -0.0660 h1         1 HO8       0.074950
     58 H21          7.1480    -1.9410     1.6260 h1         1 HO8       0.074950
     59 H22         -3.7920     1.9390    -0.0130 hn         1 HO8       0.156000
     60 H23          3.0520     2.6160    -0.1490 hn         1 HO8       0.517000
     61 H11          4.3390    -3.9860    -1.4270 h5         1 HO8       0.070100
@<TRIPOS>BOND
     1     1     2 ar  
     2     1     6 ar  
     3     1    39 1   
     4     2     3 ar  
     5     2    14 1   
     6     3     4 ar  
     7     3    30 1   
     8     4     5 ar  
     9     4    40 1   
    10     5     6 ar  
    11     5     7 1   
    12     6    41 1   
    13     7    29 1   
    14     7    37 2   
    15     8     9 ar  
    16     8    13 ar  
    17     8    29 1   
    18     9    10 ar  
    19     9    42 1   
    20    10    11 ar  
    21    10    25 1   
    22    11    12 ar  
    23    11    43 1   
    24    12    13 ar  
    25    12    44 1   
    26    13    45 1   
    27    14    46 1   
    28    14    47 1   
    29    14    48 1   
    30    15    30 1   
    31    15    31 ar  
    32    15    33 ar  
    33    16    31 ar  
    34    16    32 ar  
    35    16    34 1   
    36    17    32 ar  
    37    17    33 ar  
    38    17    36 1   
    39    18    34 1   
    40    18    35 2   
    41    18    61 1   
    42    19    20 2   
    43    19    35 1   
    44    19    49 1   
    45    20    34 1   
    46    20    50 1   
    47    21    22 1   
    48    21    36 1   
    49    21    51 1   
    50    21    52 1   
    51    22    38 1   
    52    22    53 1   
    53    22    54 1   
    54    23    24 1   
    55    23    38 1   
    56    23    55 1   
    57    23    56 1   
    58    24    36 1   
    59    24    57 1   
    60    24    58 1   
    61    25    26 1   
    62    25    27 1   
    63    25    28 1   
    64    29    59 1   
    65    30    60 1   
@<TRIPOS>SUBSTRUCTURE
     1 HO8         1 TEMP              0 ****  ****    0 ROOT
