@<TRIPOS>MOLECULE
HO9
   52    56     1     0     0
SMALL
bcc


@<TRIPOS>ATOM
      1 C10        144.6160   141.8720   134.8560 c6         1 HO9      -0.028100
      2 N12        148.2100   141.3770   134.2910 n8         1 HO9      -0.879800
      3 C13        145.9050   135.5540   135.5370 c3         1 HO9       0.183700
      4 C15        146.3770   133.2040   134.8780 ca         1 HO9      -0.126000
      5 C17        144.9270   131.3690   135.3980 ca         1 HO9      -0.139000
      6 C20        143.4510   134.4720   136.8700 cc         1 HO9       0.593200
      7 C22        141.5520   134.9750   137.7510 ca         1 HO9       0.028100
      8 C26        139.8910   136.1420   138.9150 ca         1 HO9      -0.115000
      9 C28        142.1140   137.1110   138.7170 ca         1 HO9      -0.051000
     10 C01        145.8420   138.3750   135.4740 ca         1 HO9      -0.213000
     11 C02        145.7090   139.7600   135.4860 ca         1 HO9      -0.026300
     12 C03        144.6180   140.3740   134.8700 ca         1 HO9      -0.102300
     13 C04        143.6600   139.5780   134.2550 ca         1 HO9      -0.103000
     14 C05        143.7720   138.1970   134.2550 ca         1 HO9      -0.181000
     15 C06        144.8690   137.5880   134.8620 ca         1 HO9       0.127100
     16 C07        146.6940   140.6700   136.1500 c6         1 HO9      -0.067100
     17 C08        147.1690   141.8210   135.2110 c6         1 HO9       0.044200
     18 C09        145.9860   142.3550   134.3730 c6         1 HO9      -0.037400
     19 C14        145.5400   134.0970   135.5340 ca         1 HO9      -0.030300
     20 C16        146.0850   131.8490   134.8100 ca         1 HO9      -0.114000
     21 C18        144.0750   132.2430   136.0540 ca         1 HO9      -0.102000
     22 C19        144.3700   133.6050   136.1370 ca         1 HO9      -0.090900
     23 C23        142.4800   135.9810   137.9940 ca         1 HO9       0.064400
     24 C25        140.2450   135.0100   138.1920 ca         1 HO9      -0.120000
     25 C27        140.8060   137.1710   139.1720 ca         1 HO9      -0.149000
     26 C29        147.7520   142.9030   136.1650 c          1 HO9       0.938600
     27 N24        143.6780   135.6150   137.4170 nd         1 HO9      -0.550100
     28 O11        144.9130   136.2390   134.7960 os         1 HO9      -0.328900
     29 O21        142.1830   134.0170   137.0310 os         1 HO9      -0.288700
     30 O30        146.9490   143.7370   136.6270 o          1 HO9      -0.831300
     31 O31        148.9650   142.8050   136.4390 o          1 HO9      -0.831300
     32 H1         143.8260   142.2530   134.2060 hc         1 HO9       0.043700
     33 H2         144.4190   142.2710   135.8570 hc         1 HO9       0.043700
     34 H3         149.0440   141.1710   134.8260 hn         1 HO9       0.327300
     35 H4         147.9260   140.5110   133.8460 hn         1 HO9       0.327300
     36 H6         146.8900   135.6860   135.0770 h1         1 HO9       0.054200
     37 H7         145.9610   135.9360   136.5590 h1         1 HO9       0.054200
     38 H8         147.2750   133.5810   134.4030 ha         1 HO9       0.138000
     39 H9         144.6830   130.3160   135.3510 ha         1 HO9       0.129000
     40 H10        138.8800   136.2300   139.2890 ha         1 HO9       0.128000
     41 H11        142.8200   137.9060   138.9150 ha         1 HO9       0.163000
     42 H12        146.7120   137.9320   135.9420 ha         1 HO9       0.127000
     43 H13        142.8100   140.0420   133.7670 ha         1 HO9       0.118000
     44 H14        143.0160   137.5840   133.7780 ha         1 HO9       0.127000
     45 H15        146.2080   141.1030   137.0320 hc         1 HO9       0.056200
     46 H16        147.5630   140.1170   136.5140 hc         1 HO9       0.056200
     47 H17        146.1090   142.0110   133.3430 hc         1 HO9       0.041200
     48 H18        146.0080   143.4440   134.3410 hc         1 HO9       0.041200
     49 H19        146.7570   131.1770   134.2930 ha         1 HO9       0.130000
     50 H20        143.1800   131.8500   136.5160 ha         1 HO9       0.141000
     51 H21        139.5410   134.2150   137.9910 ha         1 HO9       0.144000
     52 H22        140.4800   138.0320   139.7390 ha         1 HO9       0.135000
@<TRIPOS>BOND
     1     1    12 1   
     2     1    18 1   
     3     1    32 1   
     4     1    33 1   
     5     2    17 1   
     6     2    34 1   
     7     2    35 1   
     8     3    19 1   
     9     3    28 1   
    10     3    36 1   
    11     3    37 1   
    12     4    19 ar  
    13     4    20 ar  
    14     4    38 1   
    15     5    20 ar  
    16     5    21 ar  
    17     5    39 1   
    18     6    22 1   
    19     6    27 2   
    20     6    29 1   
    21     7    23 ar  
    22     7    24 ar  
    23     7    29 1   
    24     8    24 ar  
    25     8    25 ar  
    26     8    40 1   
    27     9    23 ar  
    28     9    25 ar  
    29     9    41 1   
    30    10    11 ar  
    31    10    15 ar  
    32    10    42 1   
    33    11    12 ar  
    34    11    16 1   
    35    12    13 ar  
    36    13    14 ar  
    37    13    43 1   
    38    14    15 ar  
    39    14    44 1   
    40    15    28 1   
    41    16    17 1   
    42    16    45 1   
    43    16    46 1   
    44    17    18 1   
    45    17    26 1   
    46    18    47 1   
    47    18    48 1   
    48    19    22 ar  
    49    20    49 1   
    50    21    22 ar  
    51    21    50 1   
    52    23    27 1   
    53    24    51 1   
    54    25    52 1   
    55    26    30 1   
    56    26    31 1   
@<TRIPOS>SUBSTRUCTURE
     1 HO9         1 TEMP              0 ****  ****    0 ROOT
