@<TRIPOS>MOLECULE
HO9
   52    56     1     0     0
SMALL
No Charge or Current Charge


@<TRIPOS>ATOM
      1 C10        144.8160   141.8110   134.0550 c6         1 HO9      -0.028100
      2 N12        148.2990   142.6710   135.5730 n8         1 HO9      -0.990200
      3 C13        145.8310   135.3770   135.4110 c3         1 HO9       0.206900
      4 C15        146.1520   132.9520   134.7860 ca         1 HO9      -0.108000
      5 C17        144.6590   131.1850   135.5200 ca         1 HO9      -0.121000
      6 C20        143.4490   134.4220   137.0480 cc         1 HO9       0.593200
      7 C22        141.6700   135.2030   137.9020 ca         1 HO9       0.028100
      8 C26        140.1530   136.5730   139.1710 ca         1 HO9      -0.097000
      9 C28        142.5680   137.0060   139.2220 ca         1 HO9      -0.033000
     10 C01        145.9590   138.2570   135.0120 ca         1 HO9      -0.195000
     11 C02        145.9680   139.6550   134.8340 ca         1 HO9      -0.026300
     12 C03        144.8460   140.2950   134.2620 ca         1 HO9      -0.102300
     13 C04        143.7230   139.5320   133.8900 ca         1 HO9      -0.085000
     14 C05        143.7190   138.1410   134.0750 ca         1 HO9      -0.163000
     15 C06        144.8320   137.4970   134.6340 ca         1 HO9       0.127100
     16 C07        147.2160   140.4500   135.2420 c6         1 HO9      -0.067100
     17 C08        146.9590   141.9710   135.4960 c6         1 HO9       0.044200
     18 C09        146.1960   142.4890   134.2360 c6         1 HO9      -0.037400
     19 C14        145.4040   133.9100   135.5030 ca         1 HO9      -0.030300
     20 C16        145.7840   131.5980   134.7950 ca         1 HO9      -0.096000
     21 C18        143.9030   132.1260   136.2360 ca         1 HO9      -0.084000
     22 C19        144.2560   133.4950   136.2370 ca         1 HO9      -0.090900
     23 C23        142.7390   135.9260   138.3450 ca         1 HO9       0.064400
     24 C25        140.3550   135.4900   138.2890 ca         1 HO9      -0.102000
     25 C27        141.2560   137.3280   139.6360 ca         1 HO9      -0.131000
     26 C29        146.0860   142.1810   136.8310 c          1 HO9       0.728000
     27 N24        143.9080   135.4310   137.8140 nd         1 HO9      -0.550100
     28 O11        144.7700   136.1280   134.7920 os         1 HO9      -0.352100
     29 O21        142.0720   134.2140   137.0700 os         1 HO9      -0.288700
     30 O30        145.4940   143.2490   136.9500 o          1 HO9      -0.726000
     31 O31        146.4620   141.5820   137.8330 o          1 HO9      -0.726000
     32 H1         144.4320   142.0420   133.0520 hc         1 HO9       0.043700
     33 H2         144.0950   142.2500   134.7580 hc         1 HO9       0.043700
     34 H3         148.7130   142.4660   136.4900 hn         1 HO9       0.382500
     35 H4         148.9440   142.2330   134.9080 hn         1 HO9       0.382500
     36 H6         146.7490   135.4590   134.8140 h1         1 HO9       0.054200
     37 H7         146.0570   135.7590   136.4130 h1         1 HO9       0.054200
     38 H8         147.0230   133.2580   134.2110 ha         1 HO9       0.120000
     39 H9         144.3730   130.1360   135.5300 ha         1 HO9       0.111000
     40 H10        139.1460   136.8270   139.4950 ha         1 HO9       0.110000
     41 H11        143.4240   137.5790   139.5720 ha         1 HO9       0.145000
     42 H12        146.8340   137.7810   135.4430 ha         1 HO9       0.109000
     43 H13        142.8530   140.0200   133.4560 ha         1 HO9       0.100000
     44 H14        142.8480   137.5590   133.7850 ha         1 HO9       0.109000
     45 H15        147.6700   139.9920   136.1320 hc         1 HO9       0.056200
     46 H16        147.9600   140.3300   134.4430 hc         1 HO9       0.056200
     47 H17        146.8010   142.3050   133.3360 hc         1 HO9       0.041200
     48 H18        146.0610   143.5780   134.2880 hc         1 HO9       0.041200
     49 H19        146.3700   130.8700   134.2380 ha         1 HO9       0.112000
     50 H20        143.0390   131.7850   136.8040 ha         1 HO9       0.123000
     51 H21        139.5210   134.8980   137.9210 ha         1 HO9       0.126000
     52 H22        141.0940   138.1620   140.3160 ha         1 HO9       0.117000
@<TRIPOS>BOND
     1     1    12 1   
     2     1    18 1   
     3     1    32 1   
     4     1    33 1   
     5     2    17 1   
     6     2    34 1   
     7     2    35 1   
     8     3    19 1   
     9     3    28 1   
    10     3    36 1   
    11     3    37 1   
    12     4    19 ar  
    13     4    20 ar  
    14     4    38 1   
    15     5    20 ar  
    16     5    21 ar  
    17     5    39 1   
    18     6    22 1   
    19     6    27 2   
    20     6    29 1   
    21     7    23 ar  
    22     7    24 ar  
    23     7    29 1   
    24     8    24 ar  
    25     8    25 ar  
    26     8    40 1   
    27     9    23 ar  
    28     9    25 ar  
    29     9    41 1   
    30    10    11 ar  
    31    10    15 ar  
    32    10    42 1   
    33    11    12 ar  
    34    11    16 1   
    35    12    13 ar  
    36    13    14 ar  
    37    13    43 1   
    38    14    15 ar  
    39    14    44 1   
    40    15    28 1   
    41    16    17 1   
    42    16    45 1   
    43    16    46 1   
    44    17    18 1   
    45    17    26 1   
    46    18    47 1   
    47    18    48 1   
    48    19    22 ar  
    49    20    49 1   
    50    21    22 ar  
    51    21    50 1   
    52    23    27 1   
    53    24    51 1   
    54    25    52 1   
    55    26    30 1   
    56    26    31 1   
@<TRIPOS>SUBSTRUCTURE
     1 HO9         1 TEMP              0 ****  ****    0 ROOT
