@<TRIPOS>MOLECULE
HOA
    5     4     1     0     0
SMALL
abcg2


@<TRIPOS>ATOM
      1 N            0.6760     0.1960    -0.0460 n8         1 HOA      -0.752700
      2 O           -0.7050     0.2060     0.2580 oh         1 HOA      -0.494300
      3 HN1          1.1220     0.6600     0.7380 hn         1 HOA       0.393500
      4 HN2          0.9560    -0.7770     0.0250 hn         1 HOA       0.393500
      5 HO          -1.1040     0.6140    -0.5150 ho         1 HOA       0.459000
@<TRIPOS>BOND
     1     1     2 1   
     2     1     3 1   
     3     1     4 1   
     4     2     5 1   
@<TRIPOS>SUBSTRUCTURE
     1 HOA         1 TEMP              0 ****  ****    0 ROOT
