@<TRIPOS>MOLECULE
HOA
    5     4     1     0     0
SMALL
No Charge or Current Charge


@<TRIPOS>ATOM
      1 N            0.7110     0.1840    -0.0350 n8         1 HOA      -0.752700
      2 O           -0.7540     0.2100     0.2470 oh         1 HOA      -0.494300
      3 HN1          1.1700     0.6680     0.7550 hn         1 HOA       0.393500
      4 HN2          1.0050    -0.8050     0.0310 hn         1 HOA       0.393500
      5 HO          -1.1860     0.6430    -0.5370 ho         1 HOA       0.459000
@<TRIPOS>BOND
     1     1     2 1   
     2     1     3 1   
     3     1     4 1   
     4     2     5 1   
@<TRIPOS>SUBSTRUCTURE
     1 HOA         1 TEMP              0 ****  ****    0 ROOT
