@<TRIPOS>MOLECULE
HOC
   26    25     1     0     0
SMALL
No Charge or Current Charge


@<TRIPOS>ATOM
      1 C8           5.7920     0.0500    -0.1270 c3         1 HOC      -0.086100
      2 C7           4.4600    -0.5110     0.4070 c3         1 HOC      -0.076400
      3 OH          -2.0310     1.7710    -0.0320 oh         1 HOC      -0.717000
      4 C1          -3.2500    -0.4210     0.0060 c          1 HOC       0.691000
      5 C2          -1.9490     0.3680    -0.4020 c3         1 HOC       0.021300
      6 C3          -0.6870    -0.2680     0.2380 c3         1 HOC      -0.071400
      7 C4           0.6500     0.2980    -0.2980 c3         1 HOC      -0.071400
      8 C5           1.8880    -0.3880     0.3220 c3         1 HOC      -0.076400
      9 C6           3.2230     0.1750    -0.2130 c3         1 HOC      -0.075400
     10 H81          5.8780     1.1210     0.0940 hc         1 HOC       0.024367
     11 H82          6.6390    -0.4660     0.3410 hc         1 HOC       0.024367
     12 H83          5.8640    -0.0870    -1.2130 hc         1 HOC       0.024367
     13 H71          4.4200    -1.5880     0.2020 hc         1 HOC       0.033700
     14 H72          4.4340    -0.3910     1.4970 hc         1 HOC       0.033700
     15 HOH         -2.7980     1.8200     0.5890 ho         1 HOC       0.473000
     16 H2          -1.8560     0.2830    -1.4930 h1         1 HOC       0.024700
     17 H31         -0.7070    -1.3480     0.0470 hc         1 HOC       0.038700
     18 H32         -0.7290    -0.1440     1.3280 hc         1 HOC       0.038700
     19 H41          0.6990     1.3740    -0.0930 hc         1 HOC       0.033700
     20 H42          0.6800     0.1770    -1.3880 hc         1 HOC       0.033700
     21 H51          1.8440    -1.4650     0.1170 hc         1 HOC       0.030700
     22 H52          1.8580    -0.2680     1.4120 hc         1 HOC       0.030700
     23 H61          3.2680     1.2520    -0.0070 hc         1 HOC       0.032700
     24 H62          3.2530     0.0550    -1.3030 hc         1 HOC       0.032700
     25 O1A         -3.5510    -1.4250    -0.6240 o          1 HOC      -0.723500
     26 O1B         -3.9730     0.0810     0.8600 o          1 HOC      -0.723500
@<TRIPOS>BOND
     1     1     2 1   
     2     1    10 1   
     3     1    11 1   
     4     1    12 1   
     5     2     9 1   
     6     2    13 1   
     7     2    14 1   
     8     3     5 1   
     9     3    15 1   
    10     4     5 1   
    11     4    25 1   
    12     4    26 1   
    13     5     6 1   
    14     5    16 1   
    15     6     7 1   
    16     6    17 1   
    17     6    18 1   
    18     7     8 1   
    19     7    19 1   
    20     7    20 1   
    21     8     9 1   
    22     8    21 1   
    23     8    22 1   
    24     9    23 1   
    25     9    24 1   
@<TRIPOS>SUBSTRUCTURE
     1 HOC         1 TEMP              0 ****  ****    0 ROOT
