@<TRIPOS>MOLECULE
HOC
   26    25     1     0     0
SMALL
abcg2


@<TRIPOS>ATOM
      1 C8           5.7300     0.0770    -0.0950 c3         1 HOC      -0.086100
      2 C7           4.4150    -0.5100     0.3990 c3         1 HOC      -0.076400
      3 OH          -1.9430     1.7240    -0.0210 oh         1 HOC      -0.717000
      4 C1          -3.1910    -0.3310     0.0770 c          1 HOC       0.691000
      5 C2          -1.8960     0.3670    -0.3950 c3         1 HOC       0.021300
      6 C3          -0.6600    -0.3250     0.1730 c3         1 HOC      -0.071400
      7 C4           0.6520     0.2790    -0.3080 c3         1 HOC      -0.071400
      8 C5           1.8740    -0.4100     0.2860 c3         1 HOC      -0.076400
      9 C6           3.1940     0.1720    -0.2040 c3         1 HOC      -0.075400
     10 H81          5.8060     1.1380     0.1530 hc         1 HOC       0.024367
     11 H82          6.5880    -0.4280     0.3480 hc         1 HOC       0.024367
     12 H83          5.8190    -0.0120    -1.1800 hc         1 HOC       0.024367
     13 H71          4.3820    -1.5800     0.1690 hc         1 HOC       0.033700
     14 H72          4.3690    -0.4350     1.4900 hc         1 HOC       0.033700
     15 HOH         -2.7760     1.7600     0.4880 ho         1 HOC       0.473000
     16 H2          -1.8530     0.2890    -1.4930 h1         1 HOC       0.024700
     17 H31         -0.6970    -1.3820    -0.1030 hc         1 HOC       0.038700
     18 H32         -0.7010    -0.2910     1.2690 hc         1 HOC       0.038700
     19 H41          0.6840     1.3440    -0.0590 hc         1 HOC       0.033700
     20 H42          0.6980     0.2200    -1.4010 hc         1 HOC       0.033700
     21 H51          1.8390    -1.4800     0.0510 hc         1 HOC       0.030700
     22 H52          1.8320    -0.3430     1.3790 hc         1 HOC       0.030700
     23 H61          3.2270     1.2430     0.0250 hc         1 HOC       0.032700
     24 H62          3.2410     0.0970    -1.2970 hc         1 HOC       0.032700
     25 O1A         -3.3510    -1.5230    -0.2260 o          1 HOC      -0.723500
     26 O1B         -3.9660     0.3950     0.7430 o          1 HOC      -0.723500
@<TRIPOS>BOND
     1     1     2 1   
     2     1    10 1   
     3     1    11 1   
     4     1    12 1   
     5     2     9 1   
     6     2    13 1   
     7     2    14 1   
     8     3     5 1   
     9     3    15 1   
    10     4     5 1   
    11     4    25 1   
    12     4    26 1   
    13     5     6 1   
    14     5    16 1   
    15     6     7 1   
    16     6    17 1   
    17     6    18 1   
    18     7     8 1   
    19     7    19 1   
    20     7    20 1   
    21     8     9 1   
    22     8    21 1   
    23     8    22 1   
    24     9    23 1   
    25     9    24 1   
@<TRIPOS>SUBSTRUCTURE
     1 HOC         1 TEMP              0 ****  ****    0 ROOT
