@<TRIPOS>MOLECULE
HOE
   57    62     1     0     0
SMALL
bcc


@<TRIPOS>ATOM
      1 C1          -8.5240     1.6860    -0.1030 ca         1 HOE      -0.200500
      2 C2          -7.1750     1.3930    -0.0970 ca         1 HOE      -0.053000
      3 C3          -6.7200     0.0860     0.0940 ca         1 HOE      -0.175900
      4 C4          -7.6670    -0.9220     0.2800 ca         1 HOE      -0.053000
      5 C5          -9.0190    -0.6400     0.2760 ca         1 HOE      -0.200500
      6 C6          -9.4600     0.6690     0.0830 ca         1 HOE       0.168100
      7 C7          -5.3020    -0.2500     0.1060 cc         1 HOE       0.510400
      8 C8          -3.1190     0.0150    -0.0180 ca         1 HOE      -0.095200
      9 C9          -1.8110     0.4450    -0.1380 ca         1 HOE      -0.064000
     10 C10         -0.8120    -0.5140     0.0090 ca         1 HOE      -0.135900
     11 C11         -1.1450    -1.8600     0.2610 ca         1 HOE      -0.141000
     12 C12         -2.4560    -2.2780     0.3760 ca         1 HOE      -0.069000
     13 C13         -3.4650    -1.3250     0.2370 ca         1 HOE       0.101400
     14 C14          0.5790    -0.0900    -0.1150 cc         1 HOE       0.511400
     15 C15          2.7780    -0.1510     0.0410 ca         1 HOE      -0.066200
     16 C16          4.1170    -0.4460     0.2360 ca         1 HOE      -0.141000
     17 C17          5.0490     0.5200    -0.1400 ca         1 HOE       0.105600
     18 C18          4.6110     1.7330    -0.7120 ca         1 HOE      -0.193000
     19 C19          3.2700     2.0010    -0.9230 ca         1 HOE      -0.035000
     20 C20          2.3320     1.0500    -0.5350 ca         1 HOE       0.081400
     21 C21          6.8340    -0.0730     1.3980 c6         1 HOE       0.166800
     22 C22          8.1830    -0.7550     1.3950 c6         1 HOE       0.118300
     23 C23          8.7360     0.4580    -0.6520 c6         1 HOE       0.118300
     24 C24          7.3710     1.1120    -0.6080 c6         1 HOE       0.166800
     25 C25         10.5370    -0.5290     0.7030 c3         1 HOE       0.101100
     26 N1          -4.3170     0.6690    -0.0950 na         1 HOE      -0.255300
     27 N2          -4.8240    -1.4540     0.3060 nd         1 HOE      -0.584100
     28 N3           1.6330    -0.8570     0.2910 na         1 HOE      -0.259300
     29 N4           0.9630     1.0550    -0.6160 nd         1 HOE      -0.575100
     30 N5           6.4180     0.2430     0.0430 nh         1 HOE      -0.646000
     31 N6           9.1970     0.1020     0.7190 nx         1 HOE      -0.687400
     32 O1         -10.7590     1.0040     0.0680 oh         1 HOE      -0.485100
     33 H1          -8.8590     2.7050    -0.2520 ha         1 HOE       0.147500
     34 H2          -6.4820     2.2120    -0.2410 ha         1 HOE       0.141000
     35 H4          -7.3370    -1.9410     0.4310 ha         1 HOE       0.141000
     36 H5          -9.7340    -1.4420     0.4210 ha         1 HOE       0.147500
     37 H9          -1.5620     1.4800    -0.3320 ha         1 HOE       0.161000
     38 H11         -0.3650    -2.6050     0.3480 ha         1 HOE       0.119000
     39 H12         -2.6920    -3.3170     0.5630 ha         1 HOE       0.154000
     40 H16          4.4290    -1.3970     0.6470 ha         1 HOE       0.136000
     41 H18          5.3300     2.4900    -0.9920 ha         1 HOE       0.126000
     42 H19          2.9610     2.9380    -1.3690 ha         1 HOE       0.160000
     43 H212         6.1320    -0.7610     1.8660 h1         1 HOE       0.077700
     44 H221         8.1470    -1.6980     0.8510 hx         1 HOE       0.103950
     45 H222         8.5280    -0.9400     2.4100 hx         1 HOE       0.103950
     46 H231         9.4700     1.1350    -1.0850 hx         1 HOE       0.103950
     47 H232         8.7160    -0.4650    -1.2310 hx         1 HOE       0.103950
     48 H241         7.4520     2.0970    -0.1240 h1         1 HOE       0.077700
     49 H242         7.0740     1.2830    -1.6430 h1         1 HOE       0.077700
     50 H251        11.2440     0.1600     0.2500 hx         1 HOE       0.099700
     51 H252        10.8350    -0.7480     1.7240 hx         1 HOE       0.099700
     52 H253        10.4880    -1.4460     0.1240 hx         1 HOE       0.099700
     53 HN1         -4.4350     1.6550    -0.2600 hn         1 HOE       0.312700
     54 HN3          1.5830    -1.7490     0.7550 hn         1 HOE       0.313700
     55 HN6          9.2770     0.9690     1.2550 hn         1 HOE       0.442800
     56 HO1        -11.3140     0.2290     0.2080 ho         1 HOE       0.435000
     57 H211         6.8700     0.8270     2.0300 h1         1 HOE       0.077700
@<TRIPOS>BOND
     1     1     2 ar  
     2     1     6 ar  
     3     1    33 1   
     4     2     3 ar  
     5     2    34 1   
     6     3     4 ar  
     7     3     7 1   
     8     4     5 ar  
     9     4    35 1   
    10     5     6 ar  
    11     5    36 1   
    12     6    32 1   
    13     7    26 1   
    14     7    27 2   
    15     8     9 ar  
    16     8    13 ar  
    17     8    26 1   
    18     9    10 ar  
    19     9    37 1   
    20    10    11 ar  
    21    10    14 1   
    22    11    12 ar  
    23    11    38 1   
    24    12    13 ar  
    25    12    39 1   
    26    13    27 1   
    27    14    28 1   
    28    14    29 2   
    29    15    16 ar  
    30    15    20 ar  
    31    15    28 1   
    32    16    17 ar  
    33    16    40 1   
    34    17    18 ar  
    35    17    30 1   
    36    18    19 ar  
    37    18    41 1   
    38    19    20 ar  
    39    19    42 1   
    40    20    29 1   
    41    21    22 1   
    42    21    30 1   
    43    21    43 1   
    44    21    57 1   
    45    22    31 1   
    46    22    44 1   
    47    22    45 1   
    48    23    24 1   
    49    23    31 1   
    50    23    46 1   
    51    23    47 1   
    52    24    30 1   
    53    24    48 1   
    54    24    49 1   
    55    25    31 1   
    56    25    50 1   
    57    25    51 1   
    58    25    52 1   
    59    26    53 1   
    60    28    54 1   
    61    31    55 1   
    62    32    56 1   
@<TRIPOS>SUBSTRUCTURE
     1 HOE         1 TEMP              0 ****  ****    0 ROOT
