@<TRIPOS>MOLECULE
HOE
   57    62     1     0     0
SMALL
No Charge or Current Charge


@<TRIPOS>ATOM
      1 C1          -8.6800     1.5050    -0.5610 ca         1 HOE      -0.182500
      2 C2          -7.3000     1.2600    -0.4410 ca         1 HOE      -0.035000
      3 C3          -6.8310    -0.0090    -0.0250 ca         1 HOE      -0.175900
      4 C4          -7.7780    -1.0180     0.2650 ca         1 HOE      -0.035000
      5 C5          -9.1560    -0.7670     0.1430 ca         1 HOE      -0.182500
      6 C6          -9.6050     0.4950    -0.2700 ca         1 HOE       0.168100
      7 C7          -5.3920    -0.2830     0.1060 cc         1 HOE       0.510400
      8 C8          -3.1970     0.0290     0.0750 ca         1 HOE      -0.095200
      9 C9          -1.8880     0.5140    -0.0380 ca         1 HOE      -0.046000
     10 C10         -0.8200    -0.3660     0.2730 ca         1 HOE      -0.135900
     11 C11         -1.1240    -1.6960     0.6850 ca         1 HOE      -0.123000
     12 C12         -2.4620    -2.1400     0.7840 ca         1 HOE      -0.051000
     13 C13         -3.4880    -1.2420     0.4680 ca         1 HOE       0.101400
     14 C14          0.5720     0.1010     0.1680 cc         1 HOE       0.511400
     15 C15          2.7860     0.0840     0.2430 ca         1 HOE      -0.066200
     16 C16          4.1450    -0.2220     0.3800 ca         1 HOE      -0.123000
     17 C17          5.0880     0.7890     0.0870 ca         1 HOE       0.244000
     18 C18          4.6270     2.0640    -0.3330 ca         1 HOE      -0.175000
     19 C19          3.2440     2.3320    -0.4590 ca         1 HOE      -0.017000
     20 C20          2.3380     1.3060    -0.1590 ca         1 HOE       0.081400
     21 C21          7.0190    -0.0010     1.5070 c6         1 HOE       0.166800
     22 C22          8.2860    -0.8720     1.2860 c6         1 HOE       0.090100
     23 C23          8.7470     0.3540    -0.8670 c6         1 HOE       0.090100
     24 C24          7.4770     1.2200    -0.6450 c6         1 HOE       0.166800
     25 C25         10.6310    -0.9640     0.2610 c3         1 HOE       0.072900
     26 N1          -4.3870     0.6470    -0.1570 na         1 HOE      -0.305600
     27 N2          -4.8620    -1.4620     0.4960 nd         1 HOE      -0.584100
     28 N3           1.6850    -0.6870     0.4520 na         1 HOE      -0.309600
     29 N4           0.9470     1.3420    -0.2130 nd         1 HOE      -0.575100
     30 N5           6.4700     0.5170     0.2130 nh         1 HOE      -0.784400
     31 N6           9.3600    -0.1310     0.4630 nx         1 HOE      -0.658000
     32 O1         -10.9380     0.7480    -0.3910 oh         1 HOE      -0.524100
     33 H1          -9.0300     2.4830    -0.8810 ha         1 HOE       0.129500
     34 H2          -6.6070     2.0650    -0.6740 ha         1 HOE       0.123000
     35 H4          -7.4500    -2.0050     0.5870 ha         1 HOE       0.123000
     36 H5          -9.8650    -1.5580     0.3710 ha         1 HOE       0.129500
     37 H9          -1.7070     1.5390    -0.3570 ha         1 HOE       0.143000
     38 H11         -0.3300    -2.3960     0.9310 ha         1 HOE       0.101000
     39 H12         -2.6930    -3.1540     1.0980 ha         1 HOE       0.136000
     40 H16          4.4640    -1.2120     0.6910 ha         1 HOE       0.118000
     41 H18          5.3340     2.8570    -0.5520 ha         1 HOE       0.108000
     42 H19          2.8890     3.3080    -0.7770 ha         1 HOE       0.142000
     43 H212         6.2730    -0.6070     2.0400 h1         1 HOE       0.077700
     44 H221         8.0240    -1.7820     0.7390 hx         1 HOE       0.103950
     45 H222         8.7270    -1.1700     2.2440 hx         1 HOE       0.103950
     46 H231         9.5110     0.9140    -1.4180 hx         1 HOE       0.103950
     47 H232         8.4950    -0.5350    -1.4540 hx         1 HOE       0.103950
     48 H241         7.7710     2.1740    -0.1820 h1         1 HOE       0.077700
     49 H242         7.0480     1.4540    -1.6300 h1         1 HOE       0.077700
     50 H251        11.3720    -0.3820    -0.2920 hx         1 HOE       0.099700
     51 H252        11.0460    -1.2480     1.2310 hx         1 HOE       0.099700
     52 H253        10.3890    -1.8670    -0.3050 hx         1 HOE       0.099700
     53 HN1         -4.5300     1.5990    -0.4630 hn         1 HOE       0.363000
     54 HN3          1.6630    -1.6500     0.7550 hn         1 HOE       0.364000
     55 HN6          9.6330     0.7210     1.0060 hn         1 HOE       0.498000
     56 HO1        -11.4310    -0.0650    -0.1500 ho         1 HOE       0.474000
     57 H211         7.2760     0.8400     2.1680 h1         1 HOE       0.077700
@<TRIPOS>BOND
     1     1     2 ar  
     2     1     6 ar  
     3     1    33 1   
     4     2     3 ar  
     5     2    34 1   
     6     3     4 ar  
     7     3     7 1   
     8     4     5 ar  
     9     4    35 1   
    10     5     6 ar  
    11     5    36 1   
    12     6    32 1   
    13     7    26 1   
    14     7    27 2   
    15     8     9 ar  
    16     8    13 ar  
    17     8    26 1   
    18     9    10 ar  
    19     9    37 1   
    20    10    11 ar  
    21    10    14 1   
    22    11    12 ar  
    23    11    38 1   
    24    12    13 ar  
    25    12    39 1   
    26    13    27 1   
    27    14    28 1   
    28    14    29 2   
    29    15    16 ar  
    30    15    20 ar  
    31    15    28 1   
    32    16    17 ar  
    33    16    40 1   
    34    17    18 ar  
    35    17    30 1   
    36    18    19 ar  
    37    18    41 1   
    38    19    20 ar  
    39    19    42 1   
    40    20    29 1   
    41    21    22 1   
    42    21    30 1   
    43    21    43 1   
    44    21    57 1   
    45    22    31 1   
    46    22    44 1   
    47    22    45 1   
    48    23    24 1   
    49    23    31 1   
    50    23    46 1   
    51    23    47 1   
    52    24    30 1   
    53    24    48 1   
    54    24    49 1   
    55    25    31 1   
    56    25    50 1   
    57    25    51 1   
    58    25    52 1   
    59    26    53 1   
    60    28    54 1   
    61    31    55 1   
    62    32    56 1   
@<TRIPOS>SUBSTRUCTURE
     1 HOE         1 TEMP              0 ****  ****    0 ROOT
