@<TRIPOS>MOLECULE
HOF
   50    51     1     0     0
SMALL
bcc


@<TRIPOS>ATOM
      1 C1           4.7300   -32.2490    26.9550 c3         1 HOF       0.085800
      2 C2           3.3800   -31.6280    25.0210 c3         1 HOF       0.085800
      3 C3           4.6980   -29.9360    26.2840 c          1 HOF       0.675100
      4 N1           4.3480   -31.2130    26.0150 n          1 HOF      -0.474800
      5 C4           4.2320   -28.8460    25.3280 c6         1 HOF      -0.148700
      6 C5           5.2110   -27.6740    25.3210 c6         1 HOF       0.166900
      7 N2           6.4570   -28.1020    24.7030 ns         1 HOF      -0.555900
      8 C6           7.6790   -27.5730    24.9170 c          1 HOF       0.758100
      9 O1           7.7010   -26.7800    25.9980 os         1 HOF      -0.422900
     10 C7           8.8870   -26.0220    26.2140 c3         1 HOF       0.198700
     11 C8           8.9630   -24.8520    25.2710 ca         1 HOF      -0.093300
     12 C9          10.1110   -24.6060    24.5270 ca         1 HOF      -0.124000
     13 C10         10.1770   -23.5170    23.6730 ca         1 HOF      -0.078500
     14 C11          9.0880   -22.6610    23.5400 ca         1 HOF      -0.137600
     15 C12          9.1990   -21.5180    22.5990 c          1 HOF       0.654700
     16 O2           8.0990   -20.7810    22.5610 os         1 HOF      -0.418900
     17 C13          8.0760   -19.6730    21.6640 c3         1 HOF       0.130700
     18 O3          10.1810   -21.2850    21.9380 o          1 HOF      -0.536000
     19 C14          7.9330   -22.9070    24.2830 ca         1 HOF      -0.078500
     20 C15          7.8770   -23.9900    25.1410 ca         1 HOF      -0.124000
     21 O4           8.6550   -27.8040    24.2350 o          1 HOF      -0.586000
     22 C16          4.6260   -26.4910    24.5930 c2         1 HOF      -0.200200
     23 C17          3.3350   -26.3590    24.3060 c2         1 HOF      -0.157200
     24 C18          2.2990   -27.3620    24.7060 c6         1 HOF      -0.048200
     25 C19          2.8390   -28.3500    25.7310 c6         1 HOF      -0.069400
     26 O5           5.3550   -29.6500    27.2780 o          1 HOF      -0.593100
     27 H1           5.7150   -32.0550    27.3690 h1         1 HOF       0.041033
     28 H2           4.0160   -32.3330    27.7790 h1         1 HOF       0.041033
     29 H3           4.7580   -33.2040    26.4330 h1         1 HOF       0.041033
     30 H4           3.1880   -30.8560    24.2840 h1         1 HOF       0.041033
     31 H5           3.7510   -32.5060    24.4910 h1         1 HOF       0.041033
     32 H6           2.4280   -31.8920    25.4870 h1         1 HOF       0.041033
     33 H7           4.1750   -29.2280    24.3040 hc         1 HOF       0.062700
     34 H8           5.4250   -27.3940    26.3520 h1         1 HOF       0.109700
     35 H9           6.3770   -28.6200    23.8400 hn         1 HOF       0.320500
     36 H10          9.7780   -26.6450    26.1400 h1         1 HOF       0.072700
     37 H11          8.8090   -25.6710    27.2430 h1         1 HOF       0.072700
     38 H12         10.9610   -25.2710    24.6110 ha         1 HOF       0.142500
     39 H13         11.0770   -23.3410    23.0990 ha         1 HOF       0.151000
     40 H14          7.0980   -19.2160    21.7800 h1         1 HOF       0.048367
     41 H15          8.8480   -18.9440    21.9100 h1         1 HOF       0.048367
     42 H16          8.2040   -19.9960    20.6310 h1         1 HOF       0.048367
     43 H17          7.0730   -22.2570    24.2010 ha         1 HOF       0.151000
     44 H18          6.9740   -24.1620    25.7140 ha         1 HOF       0.142500
     45 H19          5.3270   -25.7190    24.2930 ha         1 HOF       0.135000
     46 H21          3.0000   -25.4860    23.7560 ha         1 HOF       0.127000
     47 H23          1.9440   -27.8950    23.8170 hc         1 HOF       0.051700
     48 H24          1.4240   -26.8470    25.1100 hc         1 HOF       0.051700
     49 H25          2.1470   -29.1870    25.8390 hc         1 HOF       0.053700
     50 H26          2.9040   -27.8700    26.7120 hc         1 HOF       0.053700
@<TRIPOS>BOND
     1     1     4 1   
     2     1    27 1   
     3     1    28 1   
     4     1    29 1   
     5     2     4 1   
     6     2    30 1   
     7     2    31 1   
     8     2    32 1   
     9     3     4 1   
    10     3     5 1   
    11     3    26 2   
    12     5     6 1   
    13     5    25 1   
    14     5    33 1   
    15     6     7 1   
    16     6    22 1   
    17     6    34 1   
    18     7     8 1   
    19     7    35 1   
    20     8     9 1   
    21     8    21 2   
    22     9    10 1   
    23    10    11 1   
    24    10    36 1   
    25    10    37 1   
    26    11    12 ar  
    27    11    20 ar  
    28    12    13 ar  
    29    12    38 1   
    30    13    14 ar  
    31    13    39 1   
    32    14    15 1   
    33    14    19 ar  
    34    15    16 1   
    35    15    18 2   
    36    16    17 1   
    37    17    40 1   
    38    17    41 1   
    39    17    42 1   
    40    19    20 ar  
    41    19    43 1   
    42    20    44 1   
    43    22    23 2   
    44    22    45 1   
    45    23    24 1   
    46    23    46 1   
    47    24    25 1   
    48    24    47 1   
    49    24    48 1   
    50    25    49 1   
    51    25    50 1   
@<TRIPOS>SUBSTRUCTURE
     1 HOF         1 TEMP              0 ****  ****    0 ROOT
