@<TRIPOS>MOLECULE
HOF
   50    51     1     0     0
SMALL
No Charge or Current Charge


@<TRIPOS>ATOM
      1 C1           4.8960   -32.6300    26.3500 c3         1 HOF       0.085800
      2 C2           3.7240   -31.5650    24.3830 c3         1 HOF       0.085800
      3 C3           4.5210   -30.1490    26.3410 c          1 HOF       0.608100
      4 N1           4.4350   -31.3970    25.6720 n          1 HOF      -0.407800
      5 C4           4.1170   -28.8410    25.6160 c6         1 HOF      -0.148700
      6 C5           5.1570   -27.7060    25.7830 c6         1 HOF       0.166900
      7 N2           6.4250   -28.0590    25.1330 ns         1 HOF      -0.488900
      8 C6           7.6390   -27.4490    25.3160 c          1 HOF       0.642100
      9 O1           7.5860   -26.5090    26.3070 os         1 HOF      -0.446100
     10 C7           8.7470   -25.6920    26.5400 c3         1 HOF       0.221900
     11 C8           8.8620   -24.6560    25.4230 ca         1 HOF      -0.093300
     12 C9           9.9410   -24.6880    24.5210 ca         1 HOF      -0.106000
     13 C10         10.0390   -23.7340    23.4930 ca         1 HOF      -0.060500
     14 C11          9.0580   -22.7270    23.3490 ca         1 HOF      -0.137600
     15 C12          9.1810   -21.7100    22.2360 c          1 HOF       0.605700
     16 O2           8.1610   -20.7910    22.2110 os         1 HOF      -0.442100
     17 C13          8.1840   -19.7770    21.1880 c3         1 HOF       0.153900
     18 O3          10.1070   -21.7110    21.4340 o          1 HOF      -0.487000
     19 C14          7.9770   -22.6990    24.2600 ca         1 HOF      -0.060500
     20 C15          7.8830   -23.6550    25.2860 ca         1 HOF      -0.106000
     21 O4           8.6290   -27.7470    24.6700 o          1 HOF      -0.537000
     22 C16          4.6330   -26.4000    25.1900 c2         1 HOF      -0.250200
     23 C17          3.3430   -26.1760    24.8780 c2         1 HOF      -0.207200
     24 C18          2.2370   -27.2080    25.0630 c6         1 HOF      -0.048200
     25 C19          2.6740   -28.3910    25.9600 c6         1 HOF      -0.069400
     26 O5           4.9060   -30.1000    27.5030 o          1 HOF      -0.593100
     27 H1           5.8720   -32.4580    26.8210 h1         1 HOF       0.041033
     28 H2           4.1700   -32.9200    27.1210 h1         1 HOF       0.041033
     29 H3           4.9990   -33.4510    25.6290 h1         1 HOF       0.041033
     30 H4           4.3390   -31.1650    23.5660 h1         1 HOF       0.041033
     31 H5           3.5260   -32.6260    24.1870 h1         1 HOF       0.041033
     32 H6           2.7640   -31.0350    24.4100 h1         1 HOF       0.041033
     33 H7           4.0790   -29.0660    24.5440 hc         1 HOF       0.062700
     34 H8           5.3400   -27.5530    26.8590 h1         1 HOF       0.109700
     35 H9           6.4070   -28.7620    24.4080 hn         1 HOF       0.320500
     36 H10          9.6590   -26.3010    26.6020 h1         1 HOF       0.072700
     37 H11          8.6460   -25.1620    27.4960 h1         1 HOF       0.072700
     38 H12         10.7050   -25.4580    24.6100 ha         1 HOF       0.124500
     39 H13         10.8820   -23.7820    22.8070 ha         1 HOF       0.133000
     40 H14          7.3140   -19.1160    21.2870 h1         1 HOF       0.048367
     41 H15          9.0900   -19.1620    21.2660 h1         1 HOF       0.048367
     42 H16          8.1540   -20.2290    20.1880 h1         1 HOF       0.048367
     43 H17          7.2020   -21.9390    24.1810 ha         1 HOF       0.133000
     44 H18          7.0430   -23.6180    25.9770 ha         1 HOF       0.124500
     45 H19          5.3750   -25.6160    25.0340 ha         1 HOF       0.185000
     46 H21          3.0350   -25.2140    24.4620 ha         1 HOF       0.177000
     47 H23          1.9330   -27.5840    24.0760 hc         1 HOF       0.051700
     48 H24          1.3480   -26.7290    25.4970 hc         1 HOF       0.051700
     49 H25          1.9670   -29.2250    25.8470 hc         1 HOF       0.053700
     50 H26          2.6310   -28.0870    27.0150 hc         1 HOF       0.053700
@<TRIPOS>BOND
     1     1     4 1   
     2     1    27 1   
     3     1    28 1   
     4     1    29 1   
     5     2     4 1   
     6     2    30 1   
     7     2    31 1   
     8     2    32 1   
     9     3     4 1   
    10     3     5 1   
    11     3    26 2   
    12     5     6 1   
    13     5    25 1   
    14     5    33 1   
    15     6     7 1   
    16     6    22 1   
    17     6    34 1   
    18     7     8 1   
    19     7    35 1   
    20     8     9 1   
    21     8    21 2   
    22     9    10 1   
    23    10    11 1   
    24    10    36 1   
    25    10    37 1   
    26    11    12 ar  
    27    11    20 ar  
    28    12    13 ar  
    29    12    38 1   
    30    13    14 ar  
    31    13    39 1   
    32    14    15 1   
    33    14    19 ar  
    34    15    16 1   
    35    15    18 2   
    36    16    17 1   
    37    17    40 1   
    38    17    41 1   
    39    17    42 1   
    40    19    20 ar  
    41    19    43 1   
    42    20    44 1   
    43    22    23 2   
    44    22    45 1   
    45    23    24 1   
    46    23    46 1   
    47    24    25 1   
    48    24    47 1   
    49    24    48 1   
    50    25    49 1   
    51    25    50 1   
@<TRIPOS>SUBSTRUCTURE
     1 HOF         1 TEMP              0 ****  ****    0 ROOT
