@<TRIPOS>MOLECULE
HOG
   27    28     1     0     0
SMALL
No Charge or Current Charge


@<TRIPOS>ATOM
      1 OAA         -5.7860     0.1690     0.5760 o          1 HOG      -0.727500
      2 CAM         -4.6570     0.6390     0.6160 c          1 HOG       0.715600
      3 OAC         -4.4310     1.7850     0.9780 o          1 HOG      -0.727500
      4 CAP         -3.4880    -0.2370     0.1970 ca         1 HOG      -0.149600
      5 CAK         -2.1630     0.2600     0.2400 ca         1 HOG      -0.053000
      6 CAH         -3.6980    -1.5650    -0.2380 ca         1 HOG      -0.082000
      7 CAG         -2.6120    -2.3710    -0.6150 ca         1 HOG      -0.157000
      8 CAI         -1.3040    -1.8670    -0.5670 ca         1 HOG      -0.118000
      9 CAQ         -1.0640    -0.5430    -0.1440 ca         1 HOG      -0.105800
     10 CAR          0.3080    -0.0250    -0.0890 cc         1 HOG       0.211800
     11 CAJ          0.5450     1.2690    -0.4640 cd         1 HOG      -0.410200
     12 NAL          1.4070    -0.8290     0.2450 na         1 HOG      -0.580000
     13 CAT          2.7560    -0.3580     0.3150 cc         1 HOG      -0.018200
     14 CAN          3.8950    -1.2670     0.7470 c          1 HOG       0.726200
     15 OAD          5.0530    -0.8760     0.8090 o          1 HOG      -0.709500
     16 OAB          3.5970    -2.4210     1.0360 o          1 HOG      -0.709500
     17 CAS          2.9420     0.9780    -0.0530 cd         1 HOG      -0.051100
     18 OAF          4.1400     1.6270    -0.0750 oh         1 HOG      -0.508100
     19 CAO          1.8490     1.8690    -0.4760 c          1 HOG       0.526500
     20 OAE          2.0310     3.0360    -0.8110 o          1 HOG      -0.705100
     21 H2          -1.9840     1.2740     0.5910 ha         1 HOG       0.140000
     22 H3          -4.7030    -1.9780    -0.2830 ha         1 HOG       0.118000
     23 H4          -2.7870    -3.3920    -0.9490 ha         1 HOG       0.082000
     24 H5          -0.4800    -2.5050    -0.8760 ha         1 HOG       0.100000
     25 H6          -0.2480     1.9280    -0.7890 ha         1 HOG       0.197000
     26 H8           3.9280     2.5410    -0.3810 ho         1 HOG       0.457000
     27 H10          1.2340    -1.8030     0.4930 hn         1 HOG       0.536000
@<TRIPOS>BOND
     1     1     2 1   
     2     2     3 1   
     3     2     4 1   
     4     4     5 ar  
     5     4     6 ar  
     6     5     9 ar  
     7     5    21 1   
     8     6     7 ar  
     9     6    22 1   
    10     7     8 ar  
    11     7    23 1   
    12     8     9 ar  
    13     8    24 1   
    14     9    10 1   
    15    10    11 2   
    16    10    12 1   
    17    11    19 1   
    18    11    25 1   
    19    12    13 1   
    20    12    27 1   
    21    13    14 1   
    22    13    17 2   
    23    14    15 1   
    24    14    16 1   
    25    17    18 1   
    26    17    19 1   
    27    18    26 1   
    28    19    20 2   
@<TRIPOS>SUBSTRUCTURE
     1 HOG         1 TEMP              0 ****  ****    0 ROOT
