@<TRIPOS>MOLECULE
HOG
   27    28     1     0     0
SMALL
bcc


@<TRIPOS>ATOM
      1 OAA         -5.7300    -0.0030     0.6020 o          1 HOG      -0.832800
      2 CAM         -4.6140     0.5440     0.6620 c          1 HOG       0.926200
      3 OAC         -4.3660     1.7040     1.0420 o          1 HOG      -0.832800
      4 CAP         -3.4190    -0.2960     0.2210 ca         1 HOG      -0.149600
      5 CAK         -2.1380     0.2430     0.2340 ca         1 HOG      -0.071000
      6 CAH         -3.5850    -1.6140    -0.1960 ca         1 HOG      -0.100000
      7 CAG         -2.4920    -2.3740    -0.5890 ca         1 HOG      -0.175000
      8 CAI         -1.2170    -1.8280    -0.5700 ca         1 HOG      -0.136000
      9 CAQ         -1.0320    -0.5080    -0.1570 ca         1 HOG      -0.105800
     10 CAR          0.3120     0.0940    -0.1440 cc         1 HOG       0.211800
     11 CAJ          0.5570     1.3950    -0.5130 cd         1 HOG      -0.360200
     12 NAL          1.3370    -0.6810     0.2310 na         1 HOG      -0.524800
     13 CAT          2.6410    -0.2760     0.2750 cc         1 HOG      -0.018200
     14 CAN          3.6080    -1.3480     0.7540 c          1 HOG       0.936800
     15 OAD          4.8040    -1.0430     0.8320 o          1 HOG      -0.814800
     16 OAB          3.0700    -2.4420     1.0220 o          1 HOG      -0.814800
     17 CAS          2.9280     1.0050    -0.0880 cd         1 HOG      -0.051100
     18 OAF          4.1600     1.5240    -0.1010 oh         1 HOG      -0.469100
     19 CAO          1.8740     1.9250    -0.5000 c          1 HOG       0.526500
     20 OAE          2.1990     3.0870    -0.8190 o          1 HOG      -0.705100
     21 H2          -2.0020     1.2620     0.5720 ha         1 HOG       0.158000
     22 H3          -4.5760    -2.0450    -0.2180 ha         1 HOG       0.136000
     23 H4          -2.6320    -3.3940    -0.9200 ha         1 HOG       0.100000
     24 H5          -0.3790    -2.4250    -0.9080 ha         1 HOG       0.118000
     25 H6          -0.2610     2.0210    -0.8440 ha         1 HOG       0.147000
     26 H8           4.0340     2.4430    -0.4010 ho         1 HOG       0.418000
     27 H10          1.1970    -1.6330     0.5520 hn         1 HOG       0.480800
@<TRIPOS>BOND
     1     1     2 1   
     2     2     3 1   
     3     2     4 1   
     4     4     5 ar  
     5     4     6 ar  
     6     5     9 ar  
     7     5    21 1   
     8     6     7 ar  
     9     6    22 1   
    10     7     8 ar  
    11     7    23 1   
    12     8     9 ar  
    13     8    24 1   
    14     9    10 1   
    15    10    11 2   
    16    10    12 1   
    17    11    19 1   
    18    11    25 1   
    19    12    13 1   
    20    12    27 1   
    21    13    14 1   
    22    13    17 2   
    23    14    15 1   
    24    14    16 1   
    25    17    18 1   
    26    17    19 1   
    27    18    26 1   
    28    19    20 2   
@<TRIPOS>SUBSTRUCTURE
     1 HOG         1 TEMP              0 ****  ****    0 ROOT
