@<TRIPOS>MOLECULE
HOH
    3     2     1     0     0
SMALL
No Charge or Current Charge


@<TRIPOS>ATOM
      1 O          -23.1290    18.3930   -21.6110 oh         1 HOH      -0.864000
      2 H1         -22.1450    18.3720   -21.6070 ho         1 HOH       0.432000
      3 H2         -23.3530    18.3900   -20.6530 ho         1 HOH       0.432000
@<TRIPOS>BOND
     1     1     2 1   
     2     1     3 1   
@<TRIPOS>SUBSTRUCTURE
     1 HOH         1 TEMP              0 ****  ****    0 ROOT
