@<TRIPOS>MOLECULE
HOI
   68    72     1     0     0
SMALL
abcg2


@<TRIPOS>ATOM
      1 N1         161.0250   176.7590   175.7150 ns         1 HOI      -0.155000
      2 N3         165.4370   173.6670   169.5390 n          1 HOI      -0.391800
      3 C4         160.4910   175.8390   173.5550 ca         1 HOI      -0.096500
      4 C5         160.4940   175.8820   172.1670 ca         1 HOI      -0.152000
      5 C6         161.1140   176.9410   171.5130 ca         1 HOI       0.120100
      6 C7         161.7000   177.9560   172.2680 ca         1 HOI      -0.152000
      7 C8         161.6800   177.9140   173.6500 ca         1 HOI      -0.096500
      8 C10        161.1850   174.9080   169.0350 ca         1 HOI      -0.155300
      9 C13        162.4500   172.4950   168.4250 ca         1 HOI      -0.044000
     10 C15        162.3470   174.5250   169.6790 ca         1 HOI      -0.045000
     11 C17        165.1440   170.9300   169.2440 ca         1 HOI       0.387000
     12 C20        166.3880   169.6210   167.1010 ca         1 HOI      -0.227000
     13 C21        165.6700   168.9180   168.0560 ca         1 HOI       0.000000
     14 C22        165.0500   169.5430   169.1260 ca         1 HOI      -0.253000
     15 C24        165.6730   175.0610   169.8820 c3         1 HOI       0.141300
     16 C26        166.6640   174.4780   172.1230 ca         1 HOI      -0.101500
     17 C28        165.9510   175.5810   174.1410 ca         1 HOI      -0.102000
     18 C1         161.7040   176.8090   178.0310 c3         1 HOI      -0.181100
     19 O1         163.1030   177.5180   176.2310 o          1 HOI      -0.591100
     20 C2         162.0240   177.0690   176.5800 c          1 HOI       0.607100
     21 N2         164.5690   171.6080   170.2770 nu         1 HOI      -0.950200
     22 O2         161.2140   177.0700   170.1710 os         1 HOI      -0.346100
     23 C3         161.0830   176.8420   174.3120 ca         1 HOI      -0.068000
     24 O3         167.2300   171.6690   166.3260 oh         1 HOI      -0.549100
     25 O4         166.8440   173.7490   167.7660 o          1 HOI      -0.610000
     26 C9         160.4850   176.2140   169.3180 c3         1 HOI       0.220900
     27 C11        160.6470   174.0520   168.0620 ca         1 HOI       0.155100
     28 C12        161.2820   172.8520   167.7630 ca         1 HOI      -0.198000
     29 C14        163.0000   173.3270   169.3870 ca         1 HOI      -0.190300
     30 C16        164.2800   173.0060   170.1400 c6         1 HOI       0.454200
     31 C18        165.8740   171.6680   168.2940 ca         1 HOI      -0.344600
     32 C19        166.5080   171.0030   167.2250 ca         1 HOI       0.260100
     33 C23        166.0770   173.1000   168.4930 c          1 HOI       0.605600
     34 C25        165.7790   175.2510   171.3730 ca         1 HOI      -0.119300
     35 C27        166.7490   174.6420   173.4970 ca         1 HOI      -0.112000
     36 C29        165.0730   176.3590   173.4000 ca         1 HOI      -0.112000
     37 C30        164.9890   176.1920   172.0230 ca         1 HOI      -0.101500
     38 C31        158.9460   173.7030   166.4390 c3         1 HOI       0.147900
     39 H1         160.2100   176.3050   176.0990 hn         1 HOI       0.150000
     40 H2         160.0210   174.9990   174.0530 ha         1 HOI       0.123500
     41 H3         160.0320   175.0700   171.6230 ha         1 HOI       0.128000
     42 H4         162.1700   178.7910   171.7630 ha         1 HOI       0.128000
     43 H5         162.1260   178.7270   174.2040 ha         1 HOI       0.123500
     44 H6         162.9080   171.5480   168.1730 ha         1 HOI       0.124000
     45 H7         162.7640   175.1640   170.4470 ha         1 HOI       0.130000
     46 H8         166.8670   169.1120   166.2750 ha         1 HOI       0.133000
     47 H9         165.5860   167.8420   167.9600 ha         1 HOI       0.111000
     48 H10        164.4880   168.9730   169.8540 ha         1 HOI       0.116000
     49 H11        166.5990   175.3660   169.3980 h1         1 HOI       0.071200
     50 H12        164.8840   175.7000   169.4750 h1         1 HOI       0.071200
     51 H14        166.0100   175.7020   175.2150 ha         1 HOI       0.118000
     52 H15        162.3530   176.0150   178.4030 hc         1 HOI       0.062700
     53 H16        161.9190   177.7030   178.6140 hc         1 HOI       0.062700
     54 H17        160.6710   176.5180   178.2090 hc         1 HOI       0.062700
     55 H18        163.9410   171.0940   170.8750 hn         1 HOI       0.490000
     56 H19        167.2660   172.6100   166.6280 ho         1 HOI       0.523000
     57 H20        160.3660   176.7710   168.3870 h1         1 HOI       0.069700
     58 H21        159.4750   176.0400   169.7070 h1         1 HOI       0.069700
     59 H22        160.8780   172.1780   167.0200 ha         1 HOI       0.122000
     60 H23        164.1800   173.4110   171.1490 h2         1 HOI       0.088700
     61 H24        167.4380   174.0330   174.0690 ha         1 HOI       0.122500
     62 H25        164.4390   177.0830   173.8950 ha         1 HOI       0.122500
     63 H26        164.2930   176.7960   171.4520 ha         1 HOI       0.117500
     64 H27        158.0680   174.2440   166.0960 h1         1 HOI       0.044367
     65 H28        159.6370   173.5830   165.6010 h1         1 HOI       0.044367
     66 H29        158.6390   172.7150   166.7880 h1         1 HOI       0.044367
     67 O5         159.5120   174.4770   167.4780 os         1 HOI      -0.348100
     68 H13        167.2830   173.7360   171.6320 ha         1 HOI       0.117500
@<TRIPOS>BOND
     1     1    20 1   
     2     1    23 1   
     3     1    39 1   
     4     2    15 1   
     5     2    30 1   
     6     2    33 1   
     7     3     4 ar  
     8     3    23 ar  
     9     3    40 1   
    10     4     5 ar  
    11     4    41 1   
    12     5     6 ar  
    13     5    22 1   
    14     6     7 ar  
    15     6    42 1   
    16     7    23 ar  
    17     7    43 1   
    18     8    10 ar  
    19     8    26 1   
    20     8    27 ar  
    21     9    28 ar  
    22     9    29 ar  
    23     9    44 1   
    24    10    29 ar  
    25    10    45 1   
    26    11    14 ar  
    27    11    21 1   
    28    11    31 ar  
    29    12    13 ar  
    30    12    32 ar  
    31    12    46 1   
    32    13    14 ar  
    33    13    47 1   
    34    14    48 1   
    35    15    34 1   
    36    15    49 1   
    37    15    50 1   
    38    16    34 ar  
    39    16    35 ar  
    40    16    68 1   
    41    17    35 ar  
    42    17    36 ar  
    43    17    51 1   
    44    18    20 1   
    45    18    52 1   
    46    18    53 1   
    47    18    54 1   
    48    19    20 2   
    49    21    30 1   
    50    21    55 1   
    51    22    26 1   
    52    24    32 1   
    53    24    56 1   
    54    25    33 2   
    55    26    57 1   
    56    26    58 1   
    57    27    28 ar  
    58    27    67 1   
    59    28    59 1   
    60    29    30 1   
    61    30    60 1   
    62    31    32 ar  
    63    31    33 1   
    64    34    37 ar  
    65    35    61 1   
    66    36    37 ar  
    67    36    62 1   
    68    37    63 1   
    69    38    64 1   
    70    38    65 1   
    71    38    66 1   
    72    38    67 1   
@<TRIPOS>SUBSTRUCTURE
     1 HOI         1 TEMP              0 ****  ****    0 ROOT
