@<TRIPOS>MOLECULE
HOI
   68    72     1     0     0
SMALL
No Charge or Current Charge


@<TRIPOS>ATOM
      1 N1         159.7060   173.9930   175.8980 ns         1 HOI      -0.155000
      2 N3         166.4440   173.5270   169.2700 n          1 HOI      -0.391800
      3 C4         159.9600   174.9700   173.6980 ca         1 HOI      -0.096500
      4 C5         160.6050   175.8160   172.7780 ca         1 HOI      -0.152000
      5 C6         161.7210   176.5790   173.1830 ca         1 HOI       0.120100
      6 C7         162.1680   176.4900   174.5100 ca         1 HOI      -0.152000
      7 C8         161.5220   175.6460   175.4300 ca         1 HOI      -0.096500
      8 C10        162.5580   176.1570   170.2500 ca         1 HOI      -0.155300
      9 C13        163.3720   173.7470   169.0360 ca         1 HOI      -0.044000
     10 C15        163.7720   175.5430   170.6200 ca         1 HOI      -0.045000
     11 C17        165.2080   171.2800   170.4290 ca         1 HOI       0.387000
     12 C20        164.9520   168.8490   169.0860 ca         1 HOI      -0.227000
     13 C21        164.3840   168.9980   170.3590 ca         1 HOI       0.000000
     14 C22        164.5190   170.2220   171.0310 ca         1 HOI      -0.253000
     15 C24        167.2560   174.6860   168.8180 c3         1 HOI       0.141300
     16 C26        166.5810   177.0630   169.4410 ca         1 HOI      -0.101500
     17 C28        164.8940   178.2750   168.1680 ca         1 HOI      -0.102000
     18 C1         158.8520   172.6600   177.7620 c3         1 HOI      -0.181100
     19 O1         160.6430   174.2440   178.0040 o          1 HOI      -0.591100
     20 C2         159.8330   173.7130   177.2540 c          1 HOI       0.607100
     21 N2         165.3490   172.4730   171.0950 nu         1 HOI      -0.950200
     22 O2         162.4030   177.4240   172.3290 os         1 HOI      -0.346100
     23 C3         160.4080   174.8760   175.0290 ca         1 HOI      -0.068000
     24 O3         166.1920   169.7440   167.2660 oh         1 HOI      -0.549100
     25 O4         167.1230   172.1760   167.5340 o          1 HOI      -0.610000
     26 C9         162.1480   177.4770   170.9100 c3         1 HOI       0.220900
     27 C11        161.7520   175.5620   169.2570 ca         1 HOI       0.155100
     28 C12        162.1630   174.3520   168.6580 ca         1 HOI      -0.198000
     29 C14        164.1900   174.3410   170.0180 ca         1 HOI      -0.190300
     30 C16        165.5440   173.7380   170.4120 c6         1 HOI       0.454200
     31 C18        165.7680   171.1430   169.1640 ca         1 HOI      -0.344600
     32 C19        165.6440   169.9140   168.4940 ca         1 HOI       0.260100
     33 C23        166.4920   172.3070   168.5780 c          1 HOI       0.605600
     34 C25        166.4480   175.9570   168.5770 ca         1 HOI      -0.119300
     35 C27        165.8050   178.2180   169.2360 ca         1 HOI      -0.112000
     36 C29        164.7610   177.1770   167.3010 ca         1 HOI      -0.112000
     37 C30        165.5380   176.0220   167.5040 ca         1 HOI      -0.101500
     38 C31        159.7000   175.6640   167.8790 c3         1 HOI       0.147900
     39 H1         158.9760   173.4650   175.4390 hn         1 HOI       0.150000
     40 H2         159.1020   174.3860   173.3700 ha         1 HOI       0.123500
     41 H3         160.2250   175.8650   171.7630 ha         1 HOI       0.128000
     42 H4         163.0260   177.0780   174.8260 ha         1 HOI       0.128000
     43 H5         161.9070   175.6030   176.4440 ha         1 HOI       0.123500
     44 H6         163.6740   172.8220   168.5520 ha         1 HOI       0.124000
     45 H7         164.4030   176.0140   171.3700 ha         1 HOI       0.130000
     46 H8         164.8590   167.9040   168.5570 ha         1 HOI       0.133000
     47 H9         163.8490   168.1710   170.8230 ha         1 HOI       0.111000
     48 H10        164.0870   170.3430   172.0210 ha         1 HOI       0.116000
     49 H11        168.0220   174.8810   169.5810 h1         1 HOI       0.071200
     50 H12        167.7950   174.4440   167.8930 h1         1 HOI       0.071200
     51 H14        164.2910   179.1670   168.0130 ha         1 HOI       0.118000
     52 H15        158.9680   171.7480   177.1650 hc         1 HOI       0.062700
     53 H16        158.9640   172.4590   178.8330 hc         1 HOI       0.062700
     54 H17        157.8320   172.9730   177.5120 hc         1 HOI       0.062700
     55 H18        164.8670   172.5170   171.9900 hn         1 HOI       0.490000
     56 H19        166.6670   170.5960   167.0790 ho         1 HOI       0.523000
     57 H20        162.7390   178.2840   170.4580 h1         1 HOI       0.069700
     58 H21        161.0930   177.7110   170.7220 h1         1 HOI       0.069700
     59 H22        161.5650   173.8690   167.8920 ha         1 HOI       0.122000
     60 H23        166.0430   174.4520   171.0890 h2         1 HOI       0.088700
     61 H24        165.9070   179.0680   169.9080 ha         1 HOI       0.122500
     62 H25        164.0530   177.2170   166.4770 ha         1 HOI       0.122500
     63 H26        165.4200   175.1700   166.8370 ha         1 HOI       0.117500
     64 H27        158.8320   176.3220   167.7480 h1         1 HOI       0.044367
     65 H28        160.2190   175.5920   166.9150 h1         1 HOI       0.044367
     66 H29        159.3320   174.6690   168.1580 h1         1 HOI       0.044367
     67 O5         160.5750   176.1900   168.8930 os         1 HOI      -0.348100
     68 H13        167.2760   177.0270   170.2770 ha         1 HOI       0.117500
@<TRIPOS>BOND
     1     1    20 1   
     2     1    23 1   
     3     1    39 1   
     4     2    15 1   
     5     2    30 1   
     6     2    33 1   
     7     3     4 ar  
     8     3    23 ar  
     9     3    40 1   
    10     4     5 ar  
    11     4    41 1   
    12     5     6 ar  
    13     5    22 1   
    14     6     7 ar  
    15     6    42 1   
    16     7    23 ar  
    17     7    43 1   
    18     8    10 ar  
    19     8    26 1   
    20     8    27 ar  
    21     9    28 ar  
    22     9    29 ar  
    23     9    44 1   
    24    10    29 ar  
    25    10    45 1   
    26    11    14 ar  
    27    11    21 1   
    28    11    31 ar  
    29    12    13 ar  
    30    12    32 ar  
    31    12    46 1   
    32    13    14 ar  
    33    13    47 1   
    34    14    48 1   
    35    15    34 1   
    36    15    49 1   
    37    15    50 1   
    38    16    34 ar  
    39    16    35 ar  
    40    16    68 1   
    41    17    35 ar  
    42    17    36 ar  
    43    17    51 1   
    44    18    20 1   
    45    18    52 1   
    46    18    53 1   
    47    18    54 1   
    48    19    20 2   
    49    21    30 1   
    50    21    55 1   
    51    22    26 1   
    52    24    32 1   
    53    24    56 1   
    54    25    33 2   
    55    26    57 1   
    56    26    58 1   
    57    27    28 ar  
    58    27    67 1   
    59    28    59 1   
    60    29    30 1   
    61    30    60 1   
    62    31    32 ar  
    63    31    33 1   
    64    34    37 ar  
    65    35    61 1   
    66    36    37 ar  
    67    36    62 1   
    68    37    63 1   
    69    38    64 1   
    70    38    65 1   
    71    38    66 1   
    72    38    67 1   
@<TRIPOS>SUBSTRUCTURE
     1 HOI         1 TEMP              0 ****  ****    0 ROOT
