@<TRIPOS>MOLECULE
HOJ
   61    64     1     0     0
SMALL
bcc


@<TRIPOS>ATOM
      1 N1          -5.4160    -1.7150     0.4470 nb         1 HOJ      -0.768000
      2 N3          -1.4060     0.3230    -0.3440 ns         1 HOJ      -0.462100
      3 C4           6.4490    -1.8120     1.0040 ca         1 HOJ      -0.070000
      4 C5           0.9540     0.9990    -0.6090 ca         1 HOJ      -0.121000
      5 C6           0.3690    -1.0790     0.4320 ca         1 HOJ      -0.121000
      6 C7           8.7410    -0.4030     0.3270 ca         1 HOJ      -0.214000
      7 C8           2.3010     0.7040    -0.4210 ca         1 HOJ      -0.167000
      8 C10         -4.6010    -2.0630    -1.7720 ca         1 HOJ      -0.273300
      9 C13         -0.0260     0.1130    -0.1790 ca         1 HOJ       0.023600
     10 C15          7.4880     0.1100     0.0110 ca         1 HOJ       0.141100
     11 C17         -5.2810    -2.4740    -0.6160 ca         1 HOJ       0.669600
     12 C20         -5.0930     0.3360     1.6830 c6         1 HOJ      -0.156700
     13 C21         -4.1510     1.5270     1.7210 c6         1 HOJ       0.091000
     14 C22         -3.5950     1.4040    -0.6320 c6         1 HOJ       0.101000
     15 C24          8.4100     2.0690    -0.9730 c3         1 HOJ       0.126700
     16 C26          4.9970     0.0100    -0.0120 c3         1 HOJ       0.197700
     17 C1           7.7000    -2.3320     1.3220 ca         1 HOJ      -0.167000
     18 C2           8.8390    -1.6260     0.9820 ca         1 HOJ      -0.088000
     19 C3          -4.0550    -0.8040    -1.7640 ca         1 HOJ      -0.058000
     20 C9           1.7030    -1.3760     0.6140 ca         1 HOJ      -0.167000
     21 C11         -4.1780     0.0130    -0.6340 ca         1 HOJ      -0.289600
     22 C12          6.3240    -0.5960     0.3500 ca         1 HOJ      -0.120300
     23 C14          2.6870    -0.4820     0.1920 ca         1 HOJ       0.130100
     24 C16         -4.8790    -0.4930     0.4520 ca         1 HOJ       0.491600
     25 C18         -2.0540     1.4880    -0.5310 c          1 HOJ       0.653100
     26 C19         -4.6800     3.4410     0.2810 c          1 HOJ       0.691100
     27 C23         -4.6740     4.0400    -1.1050 c3         1 HOJ      -0.179100
     28 C25         -6.5020    -4.1400     0.5310 c3         1 HOJ       0.134700
     29 N2          -4.1590     2.1960     0.4320 n          1 HOJ      -0.474800
     30 O1          -1.5170     2.5770    -0.6140 o          1 HOJ      -0.580100
     31 O2          -5.1440     4.0550     1.2310 o          1 HOJ      -0.595100
     32 O4           3.9650    -0.8490     0.4180 os         1 HOJ      -0.326900
     33 O5          -5.8060    -3.6970    -0.6260 os         1 HOJ      -0.433100
     34 H1          -1.9820    -0.4980    -0.2210 hn         1 HOJ       0.326500
     35 H2           5.5630    -2.3710     1.2740 ha         1 HOJ       0.148000
     36 H3           0.6950     1.9230    -1.0970 ha         1 HOJ       0.145500
     37 H4          -0.3790    -1.7860     0.7720 ha         1 HOJ       0.145500
     38 H5           9.6450     0.1330     0.0720 ha         1 HOJ       0.135000
     39 H6           3.0300     1.4230    -0.7690 ha         1 HOJ       0.143000
     40 H7          -4.5210    -2.7140    -2.6310 ha         1 HOJ       0.162000
     41 H8          -4.9580    -0.2840     2.5710 hc         1 HOJ       0.076700
     42 H9          -6.1310     0.6830     1.6980 hc         1 HOJ       0.076700
     43 H10         -4.4360     2.2290     2.4980 h1         1 HOJ       0.069200
     44 H11         -3.1330     1.1940     1.9440 h1         1 HOJ       0.069200
     45 H12         -3.8330     1.8590    -1.5940 h1         1 HOJ       0.088700
     46 H13          9.0760     1.5470    -1.6640 h1         1 HOJ       0.041700
     47 H14          8.0230     2.9580    -1.4640 h1         1 HOJ       0.041700
     48 H15          8.9820     2.3720    -0.0920 h1         1 HOJ       0.041700
     49 H16          4.8940     0.9970     0.4570 h1         1 HOJ       0.049700
     50 H17          4.9340     0.1650    -1.0970 h1         1 HOJ       0.049700
     51 H18          7.7750    -3.2830     1.8330 ha         1 HOJ       0.134000
     52 H19          9.8190    -2.0180     1.2210 ha         1 HOJ       0.130000
     53 H20         -3.5290    -0.4420    -2.6400 ha         1 HOJ       0.144000
     54 H21          1.9900    -2.3040     1.0910 ha         1 HOJ       0.143000
     55 H22         -3.6630     4.1290    -1.5010 hc         1 HOJ       0.066033
     56 H23         -5.2560     3.4420    -1.8080 hc         1 HOJ       0.066033
     57 H24         -5.1150     5.0320    -1.0580 hc         1 HOJ       0.066033
     58 H25         -5.8550    -4.1650     1.4080 h1         1 HOJ       0.049367
     59 H26         -7.3650    -3.5110     0.7520 h1         1 HOJ       0.049367
     60 H27         -6.8410    -5.1480     0.3050 h1         1 HOJ       0.049367
     61 O3           7.2880     1.2820    -0.6250 os         1 HOJ      -0.328900
@<TRIPOS>BOND
     1     1    11 ar  
     2     1    24 ar  
     3     2     9 1   
     4     2    25 1   
     5     2    34 1   
     6     3    17 ar  
     7     3    22 ar  
     8     3    35 1   
     9     4     7 ar  
    10     4     9 ar  
    11     4    36 1   
    12     5     9 ar  
    13     5    20 ar  
    14     5    37 1   
    15     6    10 ar  
    16     6    18 ar  
    17     6    38 1   
    18     7    23 ar  
    19     7    39 1   
    20     8    11 ar  
    21     8    19 ar  
    22     8    40 1   
    23    10    22 ar  
    24    10    61 1   
    25    11    33 1   
    26    12    13 1   
    27    12    24 1   
    28    12    41 1   
    29    12    42 1   
    30    13    29 1   
    31    13    43 1   
    32    13    44 1   
    33    14    21 1   
    34    14    25 1   
    35    14    29 1   
    36    14    45 1   
    37    15    46 1   
    38    15    47 1   
    39    15    48 1   
    40    15    61 1   
    41    16    22 1   
    42    16    32 1   
    43    16    49 1   
    44    16    50 1   
    45    17    18 ar  
    46    17    51 1   
    47    18    52 1   
    48    19    21 ar  
    49    19    53 1   
    50    20    23 ar  
    51    20    54 1   
    52    21    24 ar  
    53    23    32 1   
    54    25    30 2   
    55    26    27 1   
    56    26    29 1   
    57    26    31 2   
    58    27    55 1   
    59    27    56 1   
    60    27    57 1   
    61    28    33 1   
    62    28    58 1   
    63    28    59 1   
    64    28    60 1   
@<TRIPOS>SUBSTRUCTURE
     1 HOJ         1 TEMP              0 ****  ****    0 ROOT
