@<TRIPOS>MOLECULE
HOJ
   61    64     1     0     0
SMALL
No Charge or Current Charge


@<TRIPOS>ATOM
      1 N1          -5.8560    -1.5080     0.9960 nb         1 HOJ      -0.768000
      2 N3          -1.1860     0.4860    -0.6680 ns         1 HOJ      -0.136000
      3 C4           6.8860    -2.0360     0.9950 ca         1 HOJ      -0.052000
      4 C5           0.9430     0.7120     0.6240 ca         1 HOJ      -0.103000
      5 C6           0.8690    -0.5080    -1.4750 ca         1 HOJ      -0.103000
      6 C7           8.8620    -0.4010    -0.1490 ca         1 HOJ      -0.196000
      7 C8           2.3170     0.4320     0.7380 ca         1 HOJ      -0.149000
      8 C10         -4.3790    -2.5700    -0.5830 ca         1 HOJ      -0.190000
      9 C13          0.2060     0.2470    -0.4890 ca         1 HOJ      -0.069000
     10 C15          7.5620     0.1150     0.0620 ca         1 HOJ       0.141100
     11 C17         -5.4070    -2.6130     0.3670 ca         1 HOJ       0.604300
     12 C20         -5.8890     0.8710     1.4030 c6         1 HOJ      -0.156700
     13 C21         -4.9740     2.1000     1.3530 c6         1 HOJ       0.091000
     14 C22         -3.5750     1.1900    -0.5130 c6         1 HOJ       0.101000
     15 C24          8.1730     2.3190    -0.8830 c3         1 HOJ       0.149900
     16 C26          5.1560    -0.1940     0.8850 c3         1 HOJ       0.220900
     17 C1           8.1800    -2.5400     0.7820 ca         1 HOJ      -0.149000
     18 C2           9.1670    -1.7240     0.2110 ca         1 HOJ      -0.070000
     19 C3          -3.7700    -1.3470    -0.8930 ca         1 HOJ      -0.040000
     20 C9           2.2420    -0.7870    -1.3610 ca         1 HOJ      -0.149000
     21 C11         -4.2090    -0.1920    -0.2180 ca         1 HOJ      -0.224300
     22 C12          6.5700    -0.7100     0.6400 ca         1 HOJ      -0.120300
     23 C14          2.9730    -0.3200    -0.2600 ca         1 HOJ       0.130100
     24 C16         -5.2710    -0.3290     0.7060 ca         1 HOJ       0.426300
     25 C18         -2.1050     1.2680     0.0270 c          1 HOJ       0.586100
     26 C19         -4.7930     3.4510    -0.7870 c          1 HOJ       0.624100
     27 C23         -4.1790     3.6340    -2.1760 c3         1 HOJ      -0.179100
     28 C25         -7.0410    -3.9650     1.6020 c3         1 HOJ       0.157900
     29 N2          -4.4600     2.3030    -0.0250 n          1 HOJ      -0.407800
     30 O1          -1.8010     1.9730     0.9850 o          1 HOJ      -0.580100
     31 O2          -5.5530     4.3020    -0.3450 o          1 HOJ      -0.595100
     32 O4           4.3170    -0.6260    -0.2010 os         1 HOJ      -0.350100
     33 O5          -5.9770    -3.8350     0.6390 os         1 HOJ      -0.456300
     34 H1          -1.5820    -0.0110    -1.4550 hn         1 HOJ       0.160000
     35 H2           6.1260    -2.6790     1.4360 ha         1 HOJ       0.130000
     36 H3           0.4710     1.2850     1.4160 ha         1 HOJ       0.127500
     37 H4           0.3200    -0.8800    -2.3380 ha         1 HOJ       0.127500
     38 H5           9.6470     0.2070    -0.5900 ha         1 HOJ       0.117000
     39 H6           2.8520     0.8050     1.6060 ha         1 HOJ       0.125000
     40 H7          -4.0660    -3.4860    -1.0740 ha         1 HOJ       0.144000
     41 H8          -6.1250     0.6290     2.4470 hc         1 HOJ       0.076700
     42 H9          -6.8420     1.1090     0.9120 hc         1 HOJ       0.076700
     43 H10         -5.5220     2.9830     1.7130 h1         1 HOJ       0.069200
     44 H11         -4.1310     1.9500     2.0410 h1         1 HOJ       0.069200
     45 H12         -3.4760     1.2500    -1.6040 h1         1 HOJ       0.088700
     46 H13          8.5380     1.9250    -1.8400 h1         1 HOJ       0.041700
     47 H14          7.6980     3.2890    -1.0740 h1         1 HOJ       0.041700
     48 H15          9.0310     2.4860    -0.2190 h1         1 HOJ       0.041700
     49 H16          4.7870    -0.5980     1.8370 h1         1 HOJ       0.049700
     50 H17          5.1550     0.9010     0.9650 h1         1 HOJ       0.049700
     51 H18          8.4150    -3.5660     1.0590 ha         1 HOJ       0.116000
     52 H19         10.1690    -2.1160     0.0470 ha         1 HOJ       0.112000
     53 H20         -2.9850    -1.3110    -1.6460 ha         1 HOJ       0.126000
     54 H21          2.7420    -1.3690    -2.1310 ha         1 HOJ       0.125000
     55 H22         -3.0940     3.4950    -2.1220 hc         1 HOJ       0.066033
     56 H23         -4.5050     2.8110    -2.8210 hc         1 HOJ       0.066033
     57 H24         -4.4390     4.6010    -2.6210 hc         1 HOJ       0.066033
     58 H25         -6.7120    -3.6350     2.5970 h1         1 HOJ       0.049367
     59 H26         -7.9130    -3.3670     1.3070 h1         1 HOJ       0.049367
     60 H27         -7.3600    -5.0120     1.6810 h1         1 HOJ       0.049367
     61 O3           7.2300     1.4120    -0.2830 os         1 HOJ      -0.352100
@<TRIPOS>BOND
     1     1    11 ar  
     2     1    24 ar  
     3     2     9 1   
     4     2    25 1   
     5     2    34 1   
     6     3    17 ar  
     7     3    22 ar  
     8     3    35 1   
     9     4     7 ar  
    10     4     9 ar  
    11     4    36 1   
    12     5     9 ar  
    13     5    20 ar  
    14     5    37 1   
    15     6    10 ar  
    16     6    18 ar  
    17     6    38 1   
    18     7    23 ar  
    19     7    39 1   
    20     8    11 ar  
    21     8    19 ar  
    22     8    40 1   
    23    10    22 ar  
    24    10    61 1   
    25    11    33 1   
    26    12    13 1   
    27    12    24 1   
    28    12    41 1   
    29    12    42 1   
    30    13    29 1   
    31    13    43 1   
    32    13    44 1   
    33    14    21 1   
    34    14    25 1   
    35    14    29 1   
    36    14    45 1   
    37    15    46 1   
    38    15    47 1   
    39    15    48 1   
    40    15    61 1   
    41    16    22 1   
    42    16    32 1   
    43    16    49 1   
    44    16    50 1   
    45    17    18 ar  
    46    17    51 1   
    47    18    52 1   
    48    19    21 ar  
    49    19    53 1   
    50    20    23 ar  
    51    20    54 1   
    52    21    24 ar  
    53    23    32 1   
    54    25    30 2   
    55    26    27 1   
    56    26    29 1   
    57    26    31 2   
    58    27    55 1   
    59    27    56 1   
    60    27    57 1   
    61    28    33 1   
    62    28    58 1   
    63    28    59 1   
    64    28    60 1   
@<TRIPOS>SUBSTRUCTURE
     1 HOJ         1 TEMP              0 ****  ****    0 ROOT
