@<TRIPOS>MOLECULE
HOK
   64    68     1     0     0
SMALL
No Charge or Current Charge


@<TRIPOS>ATOM
      1 CAA          0.8080     3.6470     1.1020 ca         1 HOK      -0.098000
      2 CAB         -0.5420     3.2790     0.9530 ca         1 HOK      -0.086300
      3 CAC         -0.8640     2.0370     0.3560 ca         1 HOK       0.298000
      4 CAD          0.1790     1.2040    -0.1020 ca         1 HOK      -0.057000
      5 CAE          1.5380     1.5640     0.0470 ca         1 HOK      -0.142600
      6 CAF          1.8390     2.8020     0.6620 ca         1 HOK      -0.099000
      7 CAG          2.6160     0.6200    -0.4570 c          1 HOK       0.623700
      8 CAJ          5.1840     0.4720    -0.6140 ca         1 HOK      -0.021000
      9 CAK          6.3390     1.2300    -0.3360 ca         1 HOK      -0.124000
     10 CAL          7.6300     0.7340    -0.6240 ca         1 HOK      -0.167300
     11 CAM          7.7530    -0.5540    -1.1870 ca         1 HOK      -0.090000
     12 CAN          6.6100    -1.3180    -1.4660 ca         1 HOK      -0.089000
     13 CAO          5.3300    -0.8120    -1.1840 ca         1 HOK      -0.105000
     14 CAP         -1.6300     4.2310     1.4530 c3         1 HOK      -0.055800
     15 CAR         -2.8930     0.4730     0.1390 ca         1 HOK       0.456900
     16 CAT         -2.9440    -1.8140     0.2950 ca         1 HOK       0.325500
     17 CAV         -4.8490    -0.5900    -0.1610 ca         1 HOK       0.466900
     18 CAY         -2.9300    -4.1720     0.9460 cc         1 HOK       0.434400
     19 CBA         -0.8210    -4.6020     0.6370 cd         1 HOK       0.227900
     20 CBB         -0.9640    -3.2790     0.2980 cc         1 HOK      -0.182000
     21 CBD         -6.9990    -1.8140    -0.7620 c6         1 HOK       0.219800
     22 CBE         -8.4750    -1.7390    -0.3020 c6         1 HOK      -0.101400
     23 CBF         -9.1850    -0.4870    -0.8630 c6         1 HOK      -0.077400
     24 CBG         -8.4190     0.7870    -0.4460 c6         1 HOK       0.150300
     25 CBH         -6.9250     0.6990    -0.8920 c6         1 HOK       0.181800
     26 CBJ          8.8740     1.5730    -0.3050 c3         1 HOK       0.355300
     27 FBK          9.9270     1.2620    -1.0960 f          1 HOK      -0.113667
     28 FBL          8.6530     2.8990    -0.4640 f          1 HOK      -0.113667
     29 FBM          9.2750     1.3900     0.9740 f          1 HOK      -0.113667
     30 NAH          3.9260     1.0550    -0.2910 ns         1 HOK      -0.144000
     31 NAQ         -2.2120     1.6730     0.1990 nu         1 HOK      -0.930900
     32 NAS         -2.2290    -0.6690     0.3540 nb         1 HOK      -0.323000
     33 NAU         -4.2710    -1.7900     0.0360 nb         1 HOK      -0.336000
     34 NAW         -4.1940     0.5790    -0.1140 nb         1 HOK      -0.368000
     35 NAX         -2.3030    -3.0350     0.5020 na         1 HOK      -0.196000
     36 NAZ         -2.0340    -5.1500     1.0360 nd         1 HOK      -0.670000
     37 NBC         -6.2460    -0.5610    -0.4220 nh         1 HOK      -0.752300
     38 OAI          2.3240    -0.4540    -0.9720 o          1 HOK      -0.572100
     39 H1           1.0660     4.5970     1.5670 ha         1 HOK       0.120000
     40 H2          -0.0700     0.2730    -0.5990 ha         1 HOK       0.161000
     41 H3           2.8650     3.1320     0.8030 ha         1 HOK       0.116000
     42 H4           6.2300     2.2160     0.1110 ha         1 HOK       0.125000
     43 H5           8.7350    -0.9700    -1.4070 ha         1 HOK       0.132000
     44 H6           6.7160    -2.3100    -1.9010 ha         1 HOK       0.124000
     45 H7           4.4720    -1.4350    -1.4120 ha         1 HOK       0.155000
     46 H8          -2.2470     4.5970     0.6240 hc         1 HOK       0.048367
     47 H9          -2.2890     3.7350     2.1760 hc         1 HOK       0.048367
     48 H10         -1.2040     5.1090     1.9540 hc         1 HOK       0.048367
     49 H11         -3.9880    -4.2250     1.1800 h5         1 HOK       0.071100
     50 H12          0.0870    -5.1930     0.6170 h4         1 HOK       0.041100
     51 H13         -0.2480    -2.5450    -0.0520 h4         1 HOK       0.177000
     52 H14         -6.5550    -2.7000    -0.2850 h1         1 HOK       0.070700
     53 H15         -6.9660    -1.9860    -1.8490 h1         1 HOK       0.070700
     54 H16         -9.0060    -2.6460    -0.6210 hc         1 HOK       0.056700
     55 H17         -8.5130    -1.7260     0.7960 hc         1 HOK       0.056700
     56 H18         -9.2430    -0.5510    -1.9590 hc         1 HOK       0.058200
     57 H19        -10.2180    -0.4450    -0.4920 hc         1 HOK       0.058200
     58 H20         -8.4410     0.8510     0.6520 h1         1 HOK       0.038700
     59 H21         -6.8760     0.7570    -1.9900 h1         1 HOK       0.072700
     60 H22         -6.4210     1.5950    -0.5020 h1         1 HOK       0.072700
     61 H23          4.0040     1.9640     0.1440 hn         1 HOK       0.156000
     62 H24         -2.8550     2.4600     0.2400 hn         1 HOK       0.516000
     63 OBI         -9.0640     1.9410    -1.0080 oh         1 HOK      -0.652000
     64 H25         -8.7280     2.7250    -0.5200 ho         1 HOK       0.446000
@<TRIPOS>BOND
     1     1     2 ar  
     2     1     6 ar  
     3     1    39 1   
     4     2     3 ar  
     5     2    14 1   
     6     3     4 ar  
     7     3    31 1   
     8     4     5 ar  
     9     4    40 1   
    10     5     6 ar  
    11     5     7 1   
    12     6    41 1   
    13     7    30 1   
    14     7    38 2   
    15     8     9 ar  
    16     8    13 ar  
    17     8    30 1   
    18     9    10 ar  
    19     9    42 1   
    20    10    11 ar  
    21    10    26 1   
    22    11    12 ar  
    23    11    43 1   
    24    12    13 ar  
    25    12    44 1   
    26    13    45 1   
    27    14    46 1   
    28    14    47 1   
    29    14    48 1   
    30    15    31 1   
    31    15    32 ar  
    32    15    34 ar  
    33    16    32 ar  
    34    16    33 ar  
    35    16    35 1   
    36    17    33 ar  
    37    17    34 ar  
    38    17    37 1   
    39    18    35 1   
    40    18    36 2   
    41    18    49 1   
    42    19    20 2   
    43    19    36 1   
    44    19    50 1   
    45    20    35 1   
    46    20    51 1   
    47    21    22 1   
    48    21    37 1   
    49    21    52 1   
    50    21    53 1   
    51    22    23 1   
    52    22    54 1   
    53    22    55 1   
    54    23    24 1   
    55    23    56 1   
    56    23    57 1   
    57    24    25 1   
    58    24    58 1   
    59    24    63 1   
    60    25    37 1   
    61    25    59 1   
    62    25    60 1   
    63    26    27 1   
    64    26    28 1   
    65    26    29 1   
    66    30    61 1   
    67    31    62 1   
    68    63    64 1   
@<TRIPOS>SUBSTRUCTURE
     1 HOK         1 TEMP              0 ****  ****    0 ROOT
