@<TRIPOS>MOLECULE
HOK
   64    68     1     0     0
SMALL
bcc


@<TRIPOS>ATOM
      1 CAA          0.5790     3.9400     0.4470 ca         1 HOK      -0.116000
      2 CAB         -0.7450     3.5500     0.2860 ca         1 HOK      -0.086300
      3 CAC         -1.0020     2.2970    -0.2930 ca         1 HOK       0.159600
      4 CAD          0.0510     1.4880    -0.7020 ca         1 HOK      -0.075000
      5 CAE          1.3690     1.8790    -0.4930 ca         1 HOK      -0.142600
      6 CAF          1.6320     3.1200     0.0780 ca         1 HOK      -0.117000
      7 CAG          2.4380     0.9430    -0.9550 c          1 HOK       0.690700
      8 CAJ          4.8260     0.3870    -0.5430 ca         1 HOK       0.071600
      9 CAK          5.9100     0.7620     0.2560 ca         1 HOK      -0.142000
     10 CAL          7.1380     0.1440     0.1080 ca         1 HOK      -0.167300
     11 CAM          7.3150    -0.8640    -0.8360 ca         1 HOK      -0.108000
     12 CAN          6.2400    -1.2290    -1.6250 ca         1 HOK      -0.107000
     13 CAO          5.0000    -0.6180    -1.4930 ca         1 HOK      -0.123000
     14 CAP         -1.8640     4.4500     0.7150 c3         1 HOK      -0.055800
     15 CAR         -2.8980     0.6990    -0.4200 ca         1 HOK       0.982900
     16 CAT         -2.7860    -1.4900    -0.1070 ca         1 HOK       0.851500
     17 CAV         -4.7540    -0.5640    -0.6040 ca         1 HOK       0.992900
     18 CAY         -2.4880    -3.9050     0.2780 cc         1 HOK       0.434400
     19 CBA         -0.3940    -3.9690     0.6770 cd         1 HOK       0.293200
     20 CBB         -0.6750    -2.6610     0.4490 cc         1 HOK      -0.214600
     21 CBD         -6.7740    -1.9500    -0.7500 c6         1 HOK       0.219800
     22 CBE         -7.7240    -1.9320     0.4390 c6         1 HOK      -0.101400
     23 CBF         -8.6640    -0.7330     0.3730 c6         1 HOK      -0.077400
     24 CBG         -7.8790     0.5590     0.2180 c6         1 HOK       0.127100
     25 CBH         -6.9390     0.4650    -0.9890 c6         1 HOK       0.181800
     26 CBJ          8.2950     0.5280     0.9770 c3         1 HOK       0.719200
     27 FBK          9.4090     0.7260     0.2600 f          1 HOK      -0.234967
     28 FBL          8.0730     1.6460     1.6740 f          1 HOK      -0.234967
     29 FBM          8.5820    -0.4350     1.8670 f          1 HOK      -0.234967
     30 NAH          3.6310     1.0710    -0.3170 ns         1 HOK      -0.470100
     31 NAQ         -2.3380     1.9280    -0.4850 nu         1 HOK      -0.737300
     32 NAS         -2.1280    -0.3490    -0.1200 nb         1 HOK      -0.849000
     33 NAU         -4.0590    -1.6860    -0.3390 nb         1 HOK      -0.862000
     34 NAW         -4.2020     0.6500    -0.6560 nb         1 HOK      -0.894000
     35 NAX         -2.0280    -2.6220     0.1900 na         1 HOK      -0.246700
     36 NAZ         -1.5320    -4.7330     0.5680 nd         1 HOK      -0.670000
     37 NBC         -6.0650    -0.6830    -0.8460 nh         1 HOK      -0.752300
     38 OAI          2.2240     0.1220    -1.8290 o          1 HOK      -0.572100
     39 H1           0.7920     4.9090     0.8790 ha         1 HOK       0.138000
     40 H2          -0.1510     0.5430    -1.1820 ha         1 HOK       0.179000
     41 H3           2.6430     3.4820     0.2170 ha         1 HOK       0.134000
     42 H4           5.7750     1.5460     0.9900 ha         1 HOK       0.143000
     43 H5           8.2700    -1.3580    -0.9590 ha         1 HOK       0.150000
     44 H6           6.3600    -2.0090    -2.3640 ha         1 HOK       0.142000
     45 H7           4.1880    -0.9310    -2.1270 ha         1 HOK       0.173000
     46 H8          -2.4570     4.7950    -0.1370 hc         1 HOK       0.048367
     47 H9          -2.5480     3.9470     1.4010 hc         1 HOK       0.048367
     48 H10         -1.4790     5.3350     1.2170 hc         1 HOK       0.048367
     49 H11         -3.5250    -4.1520     0.1170 h5         1 HOK       0.071100
     50 H12          0.5630    -4.4050     0.9150 h4         1 HOK       0.041100
     51 H13         -0.0620    -1.7770     0.4470 h4         1 HOK       0.195000
     52 H14         -6.0600    -2.7640    -0.6730 h1         1 HOK       0.070700
     53 H15         -7.3380    -2.0890    -1.6780 h1         1 HOK       0.070700
     54 H16         -8.2960    -2.8610     0.4550 hc         1 HOK       0.056700
     55 H17         -7.1390    -1.9020     1.3630 hc         1 HOK       0.056700
     56 H18         -9.3390    -0.8450    -0.4830 hc         1 HOK       0.058200
     57 H19         -9.2870    -0.6880     1.2700 hc         1 HOK       0.058200
     58 H20         -7.2570     0.7010     1.1150 h1         1 HOK       0.038700
     59 H21         -7.5320     0.3460    -1.9020 h1         1 HOK       0.072700
     60 H22         -6.3440     1.3700    -1.0890 h1         1 HOK       0.072700
     61 H23          3.6630     1.7180     0.4560 hn         1 HOK       0.322500
     62 H24         -3.0030     2.6700    -0.6450 hn         1 HOK       0.460800
     63 OBI         -8.7910     1.6210     0.0610 oh         1 HOK      -0.589800
     64 H25         -8.3020     2.4490     0.0760 ho         1 HOK       0.407000
@<TRIPOS>BOND
     1     1     2 ar  
     2     1     6 ar  
     3     1    39 1   
     4     2     3 ar  
     5     2    14 1   
     6     3     4 ar  
     7     3    31 1   
     8     4     5 ar  
     9     4    40 1   
    10     5     6 ar  
    11     5     7 1   
    12     6    41 1   
    13     7    30 1   
    14     7    38 2   
    15     8     9 ar  
    16     8    13 ar  
    17     8    30 1   
    18     9    10 ar  
    19     9    42 1   
    20    10    11 ar  
    21    10    26 1   
    22    11    12 ar  
    23    11    43 1   
    24    12    13 ar  
    25    12    44 1   
    26    13    45 1   
    27    14    46 1   
    28    14    47 1   
    29    14    48 1   
    30    15    31 1   
    31    15    32 ar  
    32    15    34 ar  
    33    16    32 ar  
    34    16    33 ar  
    35    16    35 1   
    36    17    33 ar  
    37    17    34 ar  
    38    17    37 1   
    39    18    35 1   
    40    18    36 2   
    41    18    49 1   
    42    19    20 2   
    43    19    36 1   
    44    19    50 1   
    45    20    35 1   
    46    20    51 1   
    47    21    22 1   
    48    21    37 1   
    49    21    52 1   
    50    21    53 1   
    51    22    23 1   
    52    22    54 1   
    53    22    55 1   
    54    23    24 1   
    55    23    56 1   
    56    23    57 1   
    57    24    25 1   
    58    24    58 1   
    59    24    63 1   
    60    25    37 1   
    61    25    59 1   
    62    25    60 1   
    63    26    27 1   
    64    26    28 1   
    65    26    29 1   
    66    30    61 1   
    67    31    62 1   
    68    63    64 1   
@<TRIPOS>SUBSTRUCTURE
     1 HOK         1 TEMP              0 ****  ****    0 ROOT
