@<TRIPOS>MOLECULE
HOM
   28    29     1     0     0
SMALL
abcg2


@<TRIPOS>ATOM
      1 CA          -0.0810     0.3440    -1.4710 cc         1 HOM      -0.221400
      2 CA2         -1.4550     0.1960    -1.0080 c          1 HOM       0.670300
      3 CA3         -0.6710     0.0400     1.2310 ca         1 HOM       0.186100
      4 CA4         -1.0360    -0.1610     2.5540 ca         1 HOM      -0.154000
      5 CA5         -0.0440    -0.2280     3.5180 ca         1 HOM       0.158100
      6 CA6          1.2990    -0.1010     3.1520 ca         1 HOM      -0.185000
      7 CA7          1.6370     0.0740     1.8270 ca         1 HOM      -0.037000
      8 CA8          0.6560     0.1670     0.8310 ca         1 HOM      -0.164800
      9 CA9          0.9440     0.3160    -0.5810 cd         1 HOM       0.041600
     10 CB           0.0910     0.5010    -2.9550 c3         1 HOM      -0.030200
     11 CB7          0.2980    -0.8440    -3.6380 c3         1 HOM       0.165600
     12 CB8          2.3730     0.4920    -0.9820 c3         1 HOM      -0.067900
     13 OA2         -2.4330     0.1770    -1.7160 o          1 HOM      -0.483000
     14 OA3         -1.6710     0.1010     0.3260 os         1 HOM      -0.330200
     15 OA4         -0.4030    -0.3570     4.8210 oh         1 HOM      -0.551100
     16 OA1          0.4410    -0.6220    -5.0220 oh         1 HOM      -0.661000
     17 HA41        -2.0810    -0.2670     2.8240 ha         1 HOM       0.153000
     18 HA61         2.0710    -0.1430     3.9090 ha         1 HOM       0.127000
     19 HA71         2.6830     0.1380     1.5610 ha         1 HOM       0.120000
     20 HB1         -0.7920     0.9810    -3.3760 hc         1 HOM       0.070700
     21 HB2          0.9290     1.1600    -3.1840 hc         1 HOM       0.070700
     22 HB71         1.1900    -1.3270    -3.2140 h1         1 HOM       0.020700
     23 HB72        -0.5530    -1.4990    -3.4180 h1         1 HOM       0.020700
     24 HB81         2.9800    -0.3420    -0.6290 hc         1 HOM       0.055700
     25 HB82         2.5040     0.5640    -2.0570 hc         1 HOM       0.055700
     26 HB83         2.7800     1.3990    -0.5320 hc         1 HOM       0.055700
     27 HO41        -0.0560    -1.1800     5.1860 ho         1 HOM       0.470000
     28 HO11         0.5130    -1.4770    -5.4560 ho         1 HOM       0.445000
@<TRIPOS>BOND
     1     1     2 1   
     2     1     9 2   
     3     1    10 1   
     4     2    13 2   
     5     2    14 1   
     6     3     4 ar  
     7     3     8 ar  
     8     3    14 1   
     9     4     5 ar  
    10     4    17 1   
    11     5     6 ar  
    12     5    15 1   
    13     6     7 ar  
    14     6    18 1   
    15     7     8 ar  
    16     7    19 1   
    17     8     9 1   
    18     9    12 1   
    19    10    11 1   
    20    10    20 1   
    21    10    21 1   
    22    11    16 1   
    23    11    22 1   
    24    11    23 1   
    25    12    24 1   
    26    12    25 1   
    27    12    26 1   
    28    15    27 1   
    29    16    28 1   
@<TRIPOS>SUBSTRUCTURE
     1 HOM         1 TEMP              0 ****  ****    0 ROOT
