@<TRIPOS>MOLECULE
HOM
   28    29     1     0     0
SMALL
No Charge or Current Charge


@<TRIPOS>ATOM
      1 CA          -0.0670     0.3200    -1.4710 cc         1 HOM      -0.221400
      2 CA2         -1.4860     0.1430    -1.0320 c          1 HOM       0.670300
      3 CA3         -0.7190    -0.0850     1.2480 ca         1 HOM       0.186100
      4 CA4         -1.0870    -0.2660     2.5880 ca         1 HOM      -0.154000
      5 CA5         -0.1090    -0.2870     3.5870 ca         1 HOM       0.158100
      6 CA6          1.2400    -0.1220     3.2440 ca         1 HOM      -0.185000
      7 CA7          1.6100     0.0580     1.9000 ca         1 HOM      -0.037000
      8 CA8          0.6280     0.0720     0.8800 ca         1 HOM      -0.164800
      9 CA9          0.9690     0.2560    -0.5440 cd         1 HOM       0.041600
     10 CB           0.1070     0.5590    -2.9680 c3         1 HOM      -0.030200
     11 CB7          0.2490    -0.7500    -3.7720 c3         1 HOM       0.165600
     12 CB8          2.4260     0.3510    -0.9650 c3         1 HOM      -0.067900
     13 OA2         -2.4340     0.1570    -1.8060 o          1 HOM      -0.483000
     14 OA3         -1.7020    -0.0610     0.3010 os         1 HOM      -0.330200
     15 OA4         -0.4730    -0.4610     4.8890 oh         1 HOM      -0.551100
     16 OA1          0.4280    -0.4530    -5.1610 oh         1 HOM      -0.661000
     17 HA41        -2.1340    -0.3880     2.8500 ha         1 HOM       0.153000
     18 HA61         2.0090    -0.1300     4.0130 ha         1 HOM       0.127000
     19 HA71         2.6640     0.1950     1.6710 ha         1 HOM       0.120000
     20 HB1         -0.7390     1.1290    -3.3730 hc         1 HOM       0.070700
     21 HB2          0.9760     1.1990    -3.1610 hc         1 HOM       0.070700
     22 HB71         1.1080    -1.3170    -3.3900 h1         1 HOM       0.020700
     23 HB72        -0.6510    -1.3630    -3.6260 h1         1 HOM       0.020700
     24 HB81         3.0350    -0.4050    -0.4570 hc         1 HOM       0.055700
     25 HB82         2.5810     0.1760    -2.0340 hc         1 HOM       0.055700
     26 HB83         2.8390     1.3370    -0.7240 hc         1 HOM       0.055700
     27 HO41         0.3370    -0.4470     5.4420 ho         1 HOM       0.470000
     28 HO11         0.5080    -1.3150    -5.6290 ho         1 HOM       0.445000
@<TRIPOS>BOND
     1     1     2 1   
     2     1     9 2   
     3     1    10 1   
     4     2    13 2   
     5     2    14 1   
     6     3     4 ar  
     7     3     8 ar  
     8     3    14 1   
     9     4     5 ar  
    10     4    17 1   
    11     5     6 ar  
    12     5    15 1   
    13     6     7 ar  
    14     6    18 1   
    15     7     8 ar  
    16     7    19 1   
    17     8     9 1   
    18     9    12 1   
    19    10    11 1   
    20    10    20 1   
    21    10    21 1   
    22    11    16 1   
    23    11    22 1   
    24    11    23 1   
    25    12    24 1   
    26    12    25 1   
    27    12    26 1   
    28    15    27 1   
    29    16    28 1   
@<TRIPOS>SUBSTRUCTURE
     1 HOM         1 TEMP              0 ****  ****    0 ROOT
