@<TRIPOS>MOLECULE
HOO
   19    19     1     0     0
SMALL
bcc


@<TRIPOS>ATOM
      1 C            8.0190   -10.0120   -11.2500 c          1 HOO       0.905600
      2 O            9.1050    -9.3930   -11.2190 o          1 HOO      -0.831300
      3 N            6.6080   -10.5340   -13.2670 n8         1 HOO      -0.895800
      4 CA           7.7710   -10.9300   -12.4780 c3         1 HOO       0.016500
      5 CB           8.9850   -10.9380   -13.3910 c3         1 HOO      -0.090700
      6 CG          10.2200   -11.3420   -12.6960 cc         1 HOO       0.499300
      7 ND1         10.3160   -12.2060   -11.7620 nd         1 HOO      -0.590100
      8 CE1         11.6850   -12.3160   -11.4250 c          1 HOO       0.832900
      9 OAG         12.1280   -13.0500   -10.5860 o          1 HOO      -0.568500
     10 NE2         12.4240   -11.4780   -12.2440 ns         1 HOO      -0.651500
     11 CD2         11.5860   -10.7880   -13.0680 c          1 HOO       0.580200
     12 OAM         11.8520    -9.9720   -13.9110 o          1 HOO      -0.565500
     13 H7           7.5680   -11.9380   -12.1060 h1         1 HOO       0.060700
     14 H8           9.1440    -9.9320   -13.7840 hc         1 HOO       0.062200
     15 H9           8.8330   -11.5900   -14.2580 hc         1 HOO       0.062200
     16 H10         13.4280   -11.3760   -12.2020 hn         1 HOO       0.342500
     17 OXT          7.0820    -9.9300   -10.4330 o          1 HOO      -0.831300
     18 H4           5.7900   -10.5610   -12.6690 hn         1 HOO       0.331800
     19 H5           6.7030    -9.5600   -13.5370 hn         1 HOO       0.331800
@<TRIPOS>BOND
     1     1     2 1   
     2     1     4 1   
     3     1    17 1   
     4     3     4 1   
     5     3    18 1   
     6     3    19 1   
     7     4     5 1   
     8     4    13 1   
     9     5     6 1   
    10     5    14 1   
    11     5    15 1   
    12     6     7 2   
    13     6    11 1   
    14     7     8 1   
    15     8     9 2   
    16     8    10 1   
    17    10    11 1   
    18    10    16 1   
    19    11    12 2   
@<TRIPOS>SUBSTRUCTURE
     1 HOO         1 TEMP              0 ****  ****    0 ROOT
