@<TRIPOS>MOLECULE
HOO
   19    19     1     0     0
SMALL
No Charge or Current Charge


@<TRIPOS>ATOM
      1 C            8.0600    -9.8930   -11.2580 c          1 HOO       0.695000
      2 O            8.9490    -9.0590   -11.3570 o          1 HOO      -0.726000
      3 N            6.5380   -10.5260   -13.3010 n8         1 HOO      -1.006200
      4 CA           7.7640   -10.8560   -12.4870 c3         1 HOO       0.016500
      5 CB           8.9830   -11.0130   -13.4390 c3         1 HOO      -0.090700
      6 CG          10.2540   -11.4240   -12.7360 cc         1 HOO       0.499300
      7 ND1         10.3970   -12.4250   -11.8740 nd         1 HOO      -0.590100
      8 CE1         11.7410   -12.4510   -11.4870 c          1 HOO       0.690400
      9 OAG         12.2480   -13.2310   -10.7040 o          1 HOO      -0.493000
     10 NE2         12.3620   -11.4490   -12.1520 ns         1 HOO      -0.517500
     11 CD2         11.5490   -10.7320   -12.9680 c          1 HOO       0.437700
     12 OAM         11.8680    -9.7900   -13.6840 o          1 HOO      -0.490000
     13 H7           7.5850   -11.8430   -12.0370 h1         1 HOO       0.060700
     14 H8           9.1480   -10.0690   -13.9710 hc         1 HOO       0.062200
     15 H9           8.7490   -11.7630   -14.2040 hc         1 HOO       0.062200
     16 H10         13.3480   -11.2610   -12.0470 hn         1 HOO       0.342500
     17 OXT          7.3690   -10.0170   -10.2560 o          1 HOO      -0.726000
     18 H4           5.7230   -10.4840   -12.6730 hn         1 HOO       0.387000
     19 H5           6.6120    -9.5610   -13.6500 hn         1 HOO       0.387000
@<TRIPOS>BOND
     1     1     2 1   
     2     1     4 1   
     3     1    17 1   
     4     3     4 1   
     5     3    18 1   
     6     3    19 1   
     7     4     5 1   
     8     4    13 1   
     9     5     6 1   
    10     5    14 1   
    11     5    15 1   
    12     6     7 2   
    13     6    11 1   
    14     7     8 1   
    15     8     9 2   
    16     8    10 1   
    17    10    11 1   
    18    10    16 1   
    19    11    12 2   
@<TRIPOS>SUBSTRUCTURE
     1 HOO         1 TEMP              0 ****  ****    0 ROOT
