@<TRIPOS>MOLECULE
HOP
   54    56     1     0     0
SMALL
bcc


@<TRIPOS>ATOM
      1 C1           1.2980    -0.3730     8.9600 ca         1 HOP      -0.132000
      2 C2           0.0220    -0.4640     8.4180 ca         1 HOP      -0.129500
      3 C6           2.3830    -0.1710     8.1190 ca         1 HOP      -0.129500
      4 C5           2.1890    -0.0610     6.7470 ca         1 HOP      -0.124000
      5 C4           0.9160    -0.1500     6.1900 ca         1 HOP      -0.071300
      6 C3          -0.1650    -0.3540     7.0480 ca         1 HOP      -0.124000
      7 C7           0.7210    -0.0440     4.6990 c6         1 HOP      -0.013400
      8 C12         -0.2200     1.1020     4.3170 c6         1 HOP      -0.109400
      9 C11         -0.3670     1.2250     2.8040 c6         1 HOP       0.153100
     10 C10         -0.8900    -0.0820     2.2080 c6         1 HOP      -0.012400
     11 C9           0.0410    -1.2390     2.5860 c6         1 HOP      -0.072400
     12 C8           0.2160    -1.3570     4.0940 c6         1 HOP      -0.071400
     13 C13         -1.0840     0.0120     0.7180 ca         1 HOP      -0.053300
     14 C14         -2.3510    -0.1120     0.1570 ca         1 HOP      -0.134500
     15 C15         -2.5390    -0.0540    -1.2150 ca         1 HOP      -0.092000
     16 C16         -1.4550     0.1140    -2.0710 ca         1 HOP      -0.140600
     17 C17         -0.1830     0.2550    -1.5150 ca         1 HOP      -0.092000
     18 C18         -0.0040     0.2050    -0.1430 ca         1 HOP      -0.134500
     19 O19         -1.2640     2.2510     2.4460 oh         1 HOP      -0.584800
     20 C20         -1.7110     0.1560    -3.5430 c          1 HOP       0.670700
     21 O21         -2.8050     0.4880    -3.9850 o          1 HOP      -0.622100
     22 N22         -0.6820    -0.1950    -4.3300 ns         1 HOP      -0.553900
     23 C23         -0.7630    -0.2520    -5.7760 c3         1 HOP       0.086000
     24 C24          0.6160    -0.1240    -6.4040 c3         1 HOP      -0.069400
     25 C25          0.5510    -0.2600    -7.9160 c3         1 HOP      -0.206400
     26 C26          1.8940    -0.1380    -8.6590 c          1 HOP       0.929600
     27 O27          2.9240     0.0330    -7.9780 o          1 HOP      -0.845300
     28 O28          1.8350    -0.2240    -9.9040 o          1 HOP      -0.845300
     29 H1           1.4440    -0.4570    10.0300 ha         1 HOP       0.127000
     30 H2          -0.8310    -0.6210     9.0660 ha         1 HOP       0.127500
     31 H6           3.3830    -0.0980     8.5280 ha         1 HOP       0.127500
     32 H5           3.0430     0.0980     6.0980 ha         1 HOP       0.130000
     33 H3          -1.1690    -0.4280     6.6440 ha         1 HOP       0.130000
     34 H7           1.7000     0.1700     4.2520 hc         1 HOP       0.051700
     35 H121         0.1590     2.0440     4.7260 hc         1 HOP       0.046700
     36 H122        -1.2110     0.9390     4.7550 hc         1 HOP       0.046700
     37 H11          0.6320     1.4220     2.3810 h1         1 HOP       0.031700
     38 H10         -1.8680    -0.2780     2.6640 hc         1 HOP       0.059700
     39 H91          1.0220    -1.0910     2.1200 hc         1 HOP       0.048700
     40 H92         -0.3550    -2.1720     2.1790 hc         1 HOP       0.048700
     41 H81          0.9170    -2.1640     4.3230 hc         1 HOP       0.044200
     42 H82         -0.7390    -1.6300     4.5550 hc         1 HOP       0.044200
     43 H14         -3.2080    -0.2610     0.8040 ha         1 HOP       0.125000
     44 H15         -3.5370    -0.1530    -1.6230 ha         1 HOP       0.144500
     45 H17          0.6820     0.4270    -2.1430 ha         1 HOP       0.144500
     46 H18          0.9960     0.3220     0.2570 ha         1 HOP       0.125000
     47 HO9         -0.9390     3.0760     2.8210 ho         1 HOP       0.399000
     48 HN2          0.1290    -0.6160    -3.9070 hn         1 HOP       0.309500
     49 H231        -1.2320    -1.1910    -6.0910 h1         1 HOP       0.043700
     50 H232        -1.4100     0.5550    -6.1220 h1         1 HOP       0.043700
     51 H241         1.0480     0.8410    -6.1280 hc         1 HOP       0.042700
     52 H242         1.2780    -0.8910    -5.9920 hc         1 HOP       0.042700
     53 H251         0.1050    -1.2260    -8.1800 hc         1 HOP       0.019700
     54 H252        -0.1360     0.4890    -8.3260 hc         1 HOP       0.019700
@<TRIPOS>BOND
     1     1     2 ar  
     2     1     3 ar  
     3     1    29 1   
     4     2     6 ar  
     5     2    30 1   
     6     3     4 ar  
     7     3    31 1   
     8     4     5 ar  
     9     4    32 1   
    10     5     6 ar  
    11     5     7 1   
    12     6    33 1   
    13     7     8 1   
    14     7    12 1   
    15     7    34 1   
    16     8     9 1   
    17     8    35 1   
    18     8    36 1   
    19     9    10 1   
    20     9    19 1   
    21     9    37 1   
    22    10    11 1   
    23    10    13 1   
    24    10    38 1   
    25    11    12 1   
    26    11    39 1   
    27    11    40 1   
    28    12    41 1   
    29    12    42 1   
    30    13    14 ar  
    31    13    18 ar  
    32    14    15 ar  
    33    14    43 1   
    34    15    16 ar  
    35    15    44 1   
    36    16    17 ar  
    37    16    20 1   
    38    17    18 ar  
    39    17    45 1   
    40    18    46 1   
    41    19    47 1   
    42    20    21 2   
    43    20    22 1   
    44    22    23 1   
    45    22    48 1   
    46    23    24 1   
    47    23    49 1   
    48    23    50 1   
    49    24    25 1   
    50    24    51 1   
    51    24    52 1   
    52    25    26 1   
    53    25    53 1   
    54    25    54 1   
    55    26    27 1   
    56    26    28 1   
@<TRIPOS>SUBSTRUCTURE
     1 HOP         1 TEMP              0 ****  ****    0 ROOT
