@<TRIPOS>MOLECULE
HOP
   54    56     1     0     0
SMALL
No Charge or Current Charge


@<TRIPOS>ATOM
      1 C1           1.4070    -0.1060     9.0290 ca         1 HOP      -0.114000
      2 C2           0.0960    -0.1600     8.5290 ca         1 HOP      -0.111500
      3 C6           2.4920    -0.0470     8.1390 ca         1 HOP      -0.111500
      4 C5           2.2670    -0.0410     6.7520 ca         1 HOP      -0.106000
      5 C4           0.9540    -0.0950     6.2410 ca         1 HOP      -0.071300
      6 C3          -0.1310    -0.1540     7.1420 ca         1 HOP      -0.106000
      7 C7           0.7190    -0.0890     4.7220 c6         1 HOP      -0.013400
      8 C12         -0.0920     1.1540     4.2660 c6         1 HOP      -0.109400
      9 C11         -0.2930     1.1750     2.7280 c6         1 HOP       0.176300
     10 C10         -0.9800    -0.1370     2.2340 c6         1 HOP      -0.012400
     11 C9          -0.1770    -1.3820     2.7040 c6         1 HOP      -0.072400
     12 C8           0.0220    -1.3890     4.2390 c6         1 HOP      -0.071400
     13 C13         -1.1840    -0.1640     0.7090 ca         1 HOP      -0.053300
     14 C14         -2.4730    -0.3280     0.1700 ca         1 HOP      -0.116500
     15 C15         -2.6680    -0.3630    -1.2210 ca         1 HOP      -0.074000
     16 C16         -1.5770    -0.2380    -2.1110 ca         1 HOP      -0.140600
     17 C17         -0.2810    -0.0760    -1.5630 ca         1 HOP      -0.074000
     18 C18         -0.0910    -0.0410    -0.1710 ca         1 HOP      -0.116500
     19 O19         -1.0780     2.3200     2.3730 oh         1 HOP      -0.647000
     20 C20         -1.8260    -0.2800    -3.6070 c          1 HOP       0.603700
     21 O21         -2.9470    -0.4210    -4.0780 o          1 HOP      -0.622100
     22 N22         -0.7230    -0.1520    -4.4230 ns         1 HOP      -0.486900
     23 C23         -0.7710    -0.1710    -5.8860 c3         1 HOP       0.086000
     24 C24          0.6320    -0.0110    -6.5050 c3         1 HOP      -0.069400
     25 C25          0.6160    -0.0270    -8.0540 c3         1 HOP      -0.206400
     26 C26          2.0440     0.1360    -8.6040 c          1 HOP       0.719000
     27 O27          2.7130    -0.8710    -8.7770 o          1 HOP      -0.740000
     28 O28          2.4620     1.2680    -8.7960 o          1 HOP      -0.740000
     29 H1           1.5820    -0.1100    10.1020 ha         1 HOP       0.109000
     30 H2          -0.7460    -0.2060     9.2170 ha         1 HOP       0.109500
     31 H6           3.5090    -0.0050     8.5240 ha         1 HOP       0.109500
     32 H5           3.1170     0.0050     6.0750 ha         1 HOP       0.112000
     33 H3          -1.1520    -0.1970     6.7700 ha         1 HOP       0.112000
     34 H7           1.6990    -0.0400     4.2250 hc         1 HOP       0.051700
     35 H121         0.4310     2.0660     4.5840 hc         1 HOP       0.046700
     36 H122        -1.0720     1.1680     4.7640 hc         1 HOP       0.046700
     37 H11          0.6980     1.2490     2.2570 h1         1 HOP       0.031700
     38 H10         -1.9680    -0.1870     2.7130 hc         1 HOP       0.059700
     39 H91          0.8040    -1.4080     2.2100 hc         1 HOP       0.048700
     40 H92         -0.7010    -2.2980     2.3980 hc         1 HOP       0.048700
     41 H81          0.6230    -2.2620     4.5290 hc         1 HOP       0.044200
     42 H82         -0.9530    -1.5050     4.7330 hc         1 HOP       0.044200
     43 H14         -3.3320    -0.4290     0.8290 ha         1 HOP       0.107000
     44 H15         -3.6780    -0.4900    -1.6070 ha         1 HOP       0.126500
     45 H17          0.5940     0.0240    -2.2010 ha         1 HOP       0.126500
     46 H18          0.9160     0.0810     0.2220 ha         1 HOP       0.107000
     47 HO9         -0.5610     3.1090     2.6440 ho         1 HOP       0.438000
     48 HN2          0.1730    -0.0390    -3.9710 hn         1 HOP       0.309500
     49 H231        -1.2110    -1.1220    -6.2130 h1         1 HOP       0.043700
     50 H232        -1.4190     0.6470    -6.2280 h1         1 HOP       0.043700
     51 H241         1.0720     0.9320    -6.1580 hc         1 HOP       0.042700
     52 H242         1.2780    -0.8200    -6.1420 hc         1 HOP       0.042700
     53 H251         0.2040    -1.0030    -8.3390 hc         1 HOP       0.019700
     54 H252        -0.0110     0.8220    -8.3550 hc         1 HOP       0.019700
@<TRIPOS>BOND
     1     1     2 ar  
     2     1     3 ar  
     3     1    29 1   
     4     2     6 ar  
     5     2    30 1   
     6     3     4 ar  
     7     3    31 1   
     8     4     5 ar  
     9     4    32 1   
    10     5     6 ar  
    11     5     7 1   
    12     6    33 1   
    13     7     8 1   
    14     7    12 1   
    15     7    34 1   
    16     8     9 1   
    17     8    35 1   
    18     8    36 1   
    19     9    10 1   
    20     9    19 1   
    21     9    37 1   
    22    10    11 1   
    23    10    13 1   
    24    10    38 1   
    25    11    12 1   
    26    11    39 1   
    27    11    40 1   
    28    12    41 1   
    29    12    42 1   
    30    13    14 ar  
    31    13    18 ar  
    32    14    15 ar  
    33    14    43 1   
    34    15    16 ar  
    35    15    44 1   
    36    16    17 ar  
    37    16    20 1   
    38    17    18 ar  
    39    17    45 1   
    40    18    46 1   
    41    19    47 1   
    42    20    21 2   
    43    20    22 1   
    44    22    23 1   
    45    22    48 1   
    46    23    24 1   
    47    23    49 1   
    48    23    50 1   
    49    24    25 1   
    50    24    51 1   
    51    24    52 1   
    52    25    26 1   
    53    25    53 1   
    54    25    54 1   
    55    26    27 1   
    56    26    28 1   
@<TRIPOS>SUBSTRUCTURE
     1 HOP         1 TEMP              0 ****  ****    0 ROOT
