@<TRIPOS>MOLECULE
HOQ
   35    35     1     0     0
SMALL
No Charge or Current Charge


@<TRIPOS>ATOM
      1 C1          -2.8740     2.3930     5.3870 c          1 HOQ       0.729000
      2 O1          -2.5130     3.2310     6.2010 o          1 HOQ      -0.745500
      3 OXT         -3.7050     1.5340     5.6480 o          1 HOQ      -0.745500
      4 C2          -2.2580     2.4010     3.9800 c3         1 HOQ      -0.208700
      5 C21         -2.7630     3.6130     3.1330 c3         1 HOQ       0.210000
      6 O22         -2.2220     3.4360     1.8290 oh         1 HOQ      -0.728000
      7 C3          -0.7190     2.2780     4.1000 c5         1 HOQ       0.378500
      8 S4          -0.2070     0.6690     4.8580 ss         1 HOQ      -0.573000
      9 C5           0.2010    -0.1310     3.2260 c5         1 HOQ       0.104000
     10 C51         -0.5980    -1.4520     3.1160 c3         1 HOQ      -0.060100
     11 C52          1.7200    -0.4580     3.2520 c3         1 HOQ      -0.060100
     12 C6          -0.2320     0.9240     2.1520 c5         1 HOQ       0.027500
     13 C8           0.5230     0.6520     0.7820 c          1 HOQ       0.731000
     14 O81          1.5550     1.2620     0.5240 o          1 HOQ      -0.739000
     15 O82         -0.0040    -0.0800    -0.0450 o          1 HOQ      -0.739000
     16 N7          -0.0080     2.2750     2.8000 n7         1 HOQ      -0.857400
     17 C9          -2.2730     4.9980     3.6360 c3         1 HOQ      -0.084100
     18 C10         -4.3070     3.6150     2.9920 c3         1 HOQ      -0.084100
     19 H2          -2.6490     1.5080     3.4820 hc         1 HOQ       0.061700
     20 HOM         -1.3410     2.9960     2.0160 ho         1 HOQ       0.491000
     21 H3          -0.3540     3.0990     4.7350 h2         1 HOQ       0.077700
     22 H511        -0.3460    -2.1410     3.9320 hc         1 HOQ       0.027700
     23 H512        -1.6780    -1.2670     3.1620 hc         1 HOQ       0.027700
     24 H513        -0.3890    -1.9670     2.1710 hc         1 HOQ       0.027700
     25 H521         2.3250     0.4530     3.3280 hc         1 HOQ       0.027700
     26 H522         1.9730    -1.0920     4.1100 hc         1 HOQ       0.027700
     27 H523         2.0340    -0.9950     2.3490 hc         1 HOQ       0.027700
     28 H6          -1.2980     0.7990     1.9210 h1         1 HOQ       0.071700
     29 HN7          0.9970     2.3570     2.9970 hn         1 HOQ       0.433000
     30 H91         -1.1830     5.0230     3.7540 hc         1 HOQ       0.023700
     31 H92         -2.5460     5.7860     2.9240 hc         1 HOQ       0.023700
     32 H93         -2.7300     5.2600     4.5960 hc         1 HOQ       0.023700
     33 H101        -4.6690     2.6530     2.6080 hc         1 HOQ       0.023700
     34 H102        -4.6360     4.4000     2.3010 hc         1 HOQ       0.023700
     35 H103        -4.7900     3.7990     3.9590 hc         1 HOQ       0.023700
@<TRIPOS>BOND
     1     1     2 1   
     2     1     3 1   
     3     1     4 1   
     4     4     5 1   
     5     4     7 1   
     6     4    19 1   
     7     5     6 1   
     8     5    17 1   
     9     5    18 1   
    10     6    20 1   
    11     7     8 1   
    12     7    16 1   
    13     7    21 1   
    14     8     9 1   
    15     9    10 1   
    16     9    11 1   
    17     9    12 1   
    18    10    22 1   
    19    10    23 1   
    20    10    24 1   
    21    11    25 1   
    22    11    26 1   
    23    11    27 1   
    24    12    13 1   
    25    12    16 1   
    26    12    28 1   
    27    13    14 1   
    28    13    15 1   
    29    16    29 1   
    30    17    30 1   
    31    17    31 1   
    32    17    32 1   
    33    18    33 1   
    34    18    34 1   
    35    18    35 1   
@<TRIPOS>SUBSTRUCTURE
     1 HOQ         1 TEMP              0 ****  ****    0 ROOT
