@<TRIPOS>MOLECULE
HOQ
   35    35     1     0     0
SMALL
abcg2


@<TRIPOS>ATOM
      1 C1          -2.9350     2.3380     5.3220 c          1 HOQ       0.729000
      2 O1          -2.2490     2.8620     6.2250 o          1 HOQ      -0.745500
      3 OXT         -4.0400     1.7810     5.4690 o          1 HOQ      -0.745500
      4 C2          -2.3570     2.3900     3.8920 c3         1 HOQ      -0.208700
      5 C21         -2.7730     3.6750     3.1160 c3         1 HOQ       0.210000
      6 O22         -2.3800     3.5460     1.7560 oh         1 HOQ      -0.728000
      7 C3          -0.8400     2.2040     3.9390 c5         1 HOQ       0.378500
      8 S4          -0.4340     0.6090     4.8000 ss         1 HOQ      -0.573000
      9 C5           0.1940    -0.1990     3.2700 c5         1 HOQ       0.104000
     10 C51         -0.4370    -1.5770     3.1230 c3         1 HOQ      -0.060100
     11 C52          1.7130    -0.3160     3.3600 c3         1 HOQ      -0.060100
     12 C6          -0.2750     0.7630     2.1400 c5         1 HOQ       0.027500
     13 C8           0.5590     0.5900     0.8530 c          1 HOQ       0.731000
     14 O81          1.4260     1.4540     0.6220 o          1 HOQ      -0.739000
     15 O82          0.3040    -0.4210     0.1710 o          1 HOQ      -0.739000
     16 N7          -0.2380     2.1260     2.6300 n7         1 HOQ      -0.857400
     17 C9          -2.1530     4.9430     3.7080 c3         1 HOQ      -0.084100
     18 C10         -4.2910     3.8210     3.1040 c3         1 HOQ      -0.084100
     19 H2          -2.7890     1.5540     3.3320 hc         1 HOQ       0.061700
     20 HOM         -1.4880     3.1380     1.7800 ho         1 HOQ       0.491000
     21 H3          -0.3820     3.0130     4.5040 h2         1 HOQ       0.077700
     22 H511        -0.1770    -2.2290     3.9580 hc         1 HOQ       0.027700
     23 H512        -1.5240    -1.5050     3.0750 hc         1 HOQ       0.027700
     24 H513        -0.0880    -2.0490     2.2040 hc         1 HOQ       0.027700
     25 H521         2.1960     0.6590     3.4300 hc         1 HOQ       0.027700
     26 H522         1.9980    -0.8860     4.2450 hc         1 HOQ       0.027700
     27 H523         2.1180    -0.8370     2.4900 hc         1 HOQ       0.027700
     28 H6          -1.3160     0.5090     1.9140 h1         1 HOQ       0.071700
     29 HN7          0.7200     2.4550     2.6350 hn         1 HOQ       0.433000
     30 H91         -1.0660     4.9550     3.6030 hc         1 HOQ       0.023700
     31 H92         -2.5390     5.8230     3.1890 hc         1 HOQ       0.023700
     32 H93         -2.3840     5.0480     4.7670 hc         1 HOQ       0.023700
     33 H101        -4.7790     2.9000     2.7810 hc         1 HOQ       0.023700
     34 H102        -4.5790     4.6210     2.4180 hc         1 HOQ       0.023700
     35 H103        -4.6800     4.0750     4.0890 hc         1 HOQ       0.023700
@<TRIPOS>BOND
     1     1     2 1   
     2     1     3 1   
     3     1     4 1   
     4     4     5 1   
     5     4     7 1   
     6     4    19 1   
     7     5     6 1   
     8     5    17 1   
     9     5    18 1   
    10     6    20 1   
    11     7     8 1   
    12     7    16 1   
    13     7    21 1   
    14     8     9 1   
    15     9    10 1   
    16     9    11 1   
    17     9    12 1   
    18    10    22 1   
    19    10    23 1   
    20    10    24 1   
    21    11    25 1   
    22    11    26 1   
    23    11    27 1   
    24    12    13 1   
    25    12    16 1   
    26    12    28 1   
    27    13    14 1   
    28    13    15 1   
    29    16    29 1   
    30    17    30 1   
    31    17    31 1   
    32    17    32 1   
    33    18    33 1   
    34    18    34 1   
    35    18    35 1   
@<TRIPOS>SUBSTRUCTURE
     1 HOQ         1 TEMP              0 ****  ****    0 ROOT
