@<TRIPOS>MOLECULE
HOR
   48    51     1     0     0
SMALL
No Charge or Current Charge


@<TRIPOS>ATOM
      1 N          110.5160   154.4050   154.5690 n3         1 HOR      -0.717600
      2 C          111.6530   155.3730   154.3200 c5         1 HOR       0.178500
      3 O          111.1560   156.8100   152.3780 os         1 HOR      -0.327100
      4 C1         111.0990   156.7850   153.8330 c5         1 HOR       0.219600
      5 C10        112.4640   159.0180   154.0380 ca         1 HOR      -0.078000
      6 C11        113.8390   157.7700   156.1660 ca         1 HOR      -0.098000
      7 C12        113.4770   159.7110   154.7290 ca         1 HOR      -0.113000
      8 C13        114.1610   159.0890   155.7940 ca         1 HOR      -0.098000
      9 C14        110.0450   157.4200   151.8070 ca         1 HOR       0.186100
     10 C15        109.6010   156.9360   150.5570 ca         1 HOR       0.062000
     11 C16        109.3690   158.5200   152.3930 ca         1 HOR      -0.209000
     12 C17        108.4930   157.5160   149.9170 ca         1 HOR      -0.029000
     13 C18        108.2610   159.0990   151.7490 ca         1 HOR      -0.028000
     14 C19        107.8180   158.5980   150.5110 ca         1 HOR      -0.057000
     15 C2         112.3580   155.6850   155.7040 c5         1 HOR      -0.034100
     16 C20        106.6870   159.1920   149.8550 cg         1 HOR       0.328000
     17 C3         110.9560   153.0860   155.1410 c6         1 HOR       0.162800
     18 C4         109.6350   154.1710   153.3820 c6         1 HOR       0.163800
     19 C5         109.7600   152.1560   155.5310 c6         1 HOR       0.160500
     20 C6         108.4080   153.2890   153.7220 c6         1 HOR      -0.076400
     21 C7         112.1450   157.7050   154.4300 ca         1 HOR      -0.123300
     22 C8         108.8390   151.9290   154.3120 c6         1 HOR      -0.077400
     23 C9         112.8280   157.0950   155.4640 ca         1 HOR      -0.073300
     24 N1         110.2100   150.8520   156.0810 n8         1 HOR      -0.999200
     25 N2         105.7680   159.6670   149.3140 n1         1 HOR      -0.453000
     26 Cl         110.4130   155.5730   149.7820 cl         1 HOR      -0.170000
     27 H2         112.3820   154.9770   153.5980 h1         1 HOR       0.052700
     28 H3         110.0930   156.9670   154.2340 h1         1 HOR       0.076700
     29 H4         111.9480   159.4960   153.2090 ha         1 HOR       0.120000
     30 H5         114.3680   157.2820   156.9810 ha         1 HOR       0.117000
     31 H6         113.7340   160.7270   154.4390 ha         1 HOR       0.116000
     32 H7         114.9440   159.6280   156.3250 ha         1 HOR       0.115000
     33 H8         109.6890   158.9460   153.3390 ha         1 HOR       0.132000
     34 H9         108.1620   157.1230   148.9580 ha         1 HOR       0.142000
     35 H10        107.7500   159.9420   152.2130 ha         1 HOR       0.129000
     36 H11        111.6580   155.6450   156.5460 hc         1 HOR       0.066200
     37 H12        113.1810   154.9920   155.9130 hc         1 HOR       0.066200
     38 H13        111.5940   152.5610   154.4150 h1         1 HOR       0.040200
     39 H14        111.5640   153.2370   156.0440 h1         1 HOR       0.040200
     40 H15        110.2080   153.6960   152.5720 h1         1 HOR       0.038700
     41 H16        109.2470   155.1180   152.9880 h1         1 HOR       0.038700
     42 H17        109.1770   152.6530   156.3210 h1         1 HOR       0.028700
     43 H18        107.7650   153.8190   154.4380 hc         1 HOR       0.047700
     44 H19        107.8060   153.1300   152.8170 hc         1 HOR       0.047700
     45 H20        107.9520   151.3510   154.6030 hc         1 HOR       0.048700
     46 H21        109.3650   151.3440   153.5440 hc         1 HOR       0.048700
     47 H22        110.6970   151.0210   156.9700 hn         1 HOR       0.395000
     48 H23        109.3830   150.3130   156.3620 hn         1 HOR       0.395000
@<TRIPOS>BOND
     1     1     2 1   
     2     1    17 1   
     3     1    18 1   
     4     2     4 1   
     5     2    15 1   
     6     2    27 1   
     7     3     4 1   
     8     3     9 1   
     9     4    21 1   
    10     4    28 1   
    11     5     7 ar  
    12     5    21 ar  
    13     5    29 1   
    14     6     8 ar  
    15     6    23 ar  
    16     6    30 1   
    17     7     8 ar  
    18     7    31 1   
    19     8    32 1   
    20     9    10 ar  
    21     9    11 ar  
    22    10    12 ar  
    23    10    26 1   
    24    11    13 ar  
    25    11    33 1   
    26    12    14 ar  
    27    12    34 1   
    28    13    14 ar  
    29    13    35 1   
    30    14    16 1   
    31    15    23 1   
    32    15    36 1   
    33    15    37 1   
    34    16    25 3   
    35    17    19 1   
    36    17    38 1   
    37    17    39 1   
    38    18    20 1   
    39    18    40 1   
    40    18    41 1   
    41    19    22 1   
    42    19    24 1   
    43    19    42 1   
    44    20    22 1   
    45    20    43 1   
    46    20    44 1   
    47    21    23 ar  
    48    22    45 1   
    49    22    46 1   
    50    24    47 1   
    51    24    48 1   
@<TRIPOS>SUBSTRUCTURE
     1 HOR         1 TEMP              0 ****  ****    0 ROOT
