@<TRIPOS>MOLECULE
HOR
   48    51     1     0     0
SMALL
abcg2


@<TRIPOS>ATOM
      1 N          110.3660   154.3290   154.7110 n3         1 HOR      -0.717600
      2 C          111.4160   155.2820   154.3990 c5         1 HOR       0.178500
      3 O          110.7720   156.6440   152.4960 os         1 HOR      -0.327100
      4 C1         110.9030   156.6530   153.9170 c5         1 HOR       0.219600
      5 C10        112.2040   158.9190   153.9590 ca         1 HOR      -0.078000
      6 C11        113.8030   157.7180   155.9240 ca         1 HOR      -0.098000
      7 C12        113.2590   159.6170   154.5340 ca         1 HOR      -0.113000
      8 C13        114.0520   159.0220   155.5110 ca         1 HOR      -0.098000
      9 C14        109.8830   157.4170   151.8800 ca         1 HOR       0.186100
     10 C15        109.7340   157.2070   150.5000 ca         1 HOR       0.062000
     11 C16        109.1070   158.4030   152.4890 ca         1 HOR      -0.209000
     12 C17        108.8630   157.9630   149.7500 ca         1 HOR      -0.029000
     13 C18        108.2260   159.1640   151.7440 ca         1 HOR      -0.028000
     14 C19        108.1020   158.9530   150.3740 ca         1 HOR      -0.057000
     15 C2         112.2910   155.6250   155.6220 c5         1 HOR      -0.034100
     16 C20        107.2110   159.7500   149.6000 cg         1 HOR       0.328000
     17 C3         110.9410   153.0890   155.2150 c6         1 HOR       0.162800
     18 C4         109.4950   154.0560   153.5730 c6         1 HOR       0.163800
     19 C5         109.8740   152.1010   155.6690 c6         1 HOR       0.160500
     20 C6         108.3860   153.0810   153.9430 c6         1 HOR      -0.076400
     21 C7         111.9600   157.6190   154.3780 ca         1 HOR      -0.123300
     22 C8         108.9510   151.7860   154.5040 c6         1 HOR      -0.077400
     23 C9         112.7510   157.0230   155.3490 ca         1 HOR      -0.073300
     24 N1         110.5270   150.8920   156.1470 n8         1 HOR      -0.999200
     25 N2         106.5010   160.4030   148.9690 n1         1 HOR      -0.453000
     26 CL         110.6720   155.9750   149.7440 cl         1 HOR      -0.170000
     27 H2         112.0830   154.8940   153.6070 h1         1 HOR       0.052700
     28 H3         109.9330   156.8580   154.3860 h1         1 HOR       0.076700
     29 H4         111.6020   159.3920   153.1940 ha         1 HOR       0.120000
     30 H5         114.4300   157.2530   156.6760 ha         1 HOR       0.117000
     31 H6         113.4690   160.6290   154.2150 ha         1 HOR       0.116000
     32 H7         114.8740   159.5760   155.9450 ha         1 HOR       0.115000
     33 H8         109.1910   158.6050   153.5480 ha         1 HOR       0.132000
     34 H9         108.7700   157.7860   148.6870 ha         1 HOR       0.142000
     35 H10        107.6390   159.9300   152.2330 ha         1 HOR       0.129000
     36 H11        111.6840   155.5930   156.5320 hc         1 HOR       0.066200
     37 H12        113.1200   154.9300   155.7590 hc         1 HOR       0.066200
     38 H13        111.5720   152.5970   154.4520 h1         1 HOR       0.040200
     39 H14        111.5890   153.3130   156.0640 h1         1 HOR       0.040200
     40 H15        110.0680   153.6530   152.7200 h1         1 HOR       0.038700
     41 H16        109.0300   154.9820   153.2360 h1         1 HOR       0.038700
     42 H17        109.2750   152.5990   156.4480 h1         1 HOR       0.028700
     43 H18        107.7290   153.5500   154.6810 hc         1 HOR       0.047700
     44 H19        107.7780   152.8860   153.0570 hc         1 HOR       0.047700
     45 H20        108.1450   151.1170   154.8210 hc         1 HOR       0.048700
     46 H21        109.5230   151.2610   153.7320 hc         1 HOR       0.048700
     47 H22        111.0530   151.1000   156.9870 hn         1 HOR       0.395000
     48 H23        109.8210   150.2220   156.4280 hn         1 HOR       0.395000
@<TRIPOS>BOND
     1     1     2 1   
     2     1    17 1   
     3     1    18 1   
     4     2     4 1   
     5     2    15 1   
     6     2    27 1   
     7     3     4 1   
     8     3     9 1   
     9     4    21 1   
    10     4    28 1   
    11     5     7 ar  
    12     5    21 ar  
    13     5    29 1   
    14     6     8 ar  
    15     6    23 ar  
    16     6    30 1   
    17     7     8 ar  
    18     7    31 1   
    19     8    32 1   
    20     9    10 ar  
    21     9    11 ar  
    22    10    12 ar  
    23    10    26 1   
    24    11    13 ar  
    25    11    33 1   
    26    12    14 ar  
    27    12    34 1   
    28    13    14 ar  
    29    13    35 1   
    30    14    16 1   
    31    15    23 1   
    32    15    36 1   
    33    15    37 1   
    34    16    25 3   
    35    17    19 1   
    36    17    38 1   
    37    17    39 1   
    38    18    20 1   
    39    18    40 1   
    40    18    41 1   
    41    19    22 1   
    42    19    24 1   
    43    19    42 1   
    44    20    22 1   
    45    20    43 1   
    46    20    44 1   
    47    21    23 ar  
    48    22    45 1   
    49    22    46 1   
    50    24    47 1   
    51    24    48 1   
@<TRIPOS>SUBSTRUCTURE
     1 HOR         1 TEMP              0 ****  ****    0 ROOT
