@<TRIPOS>MOLECULE
HOS
   98   100     1     0     0
SMALL
abcg2


@<TRIPOS>ATOM
      1 C23         95.3310    68.0650    -7.6410 c3         1 HOS      -0.092100
      2 C22         93.9690    68.1680    -6.9680 c3         1 HOS      -0.072400
      3 C2          92.7510    68.3200    -7.8890 c3         1 HOS       0.213000
      4 C24         91.4980    68.4570    -7.0320 c3         1 HOS      -0.125100
      5 O1          93.0170    69.5550    -8.5820 os         1 HOS      -0.366100
      6 C1          92.3340    69.9800    -9.6750 ca         1 HOS       0.107100
      7 C13         91.0170    70.4140    -9.6270 ca         1 HOS      -0.085000
      8 C12         93.0610    70.0790   -10.8690 ca         1 HOS       0.162100
      9 O5          94.3350    69.6620   -10.8700 oh         1 HOS      -0.497100
     10 C11         92.4240    70.6320   -11.9760 ca         1 HOS       0.034000
     11 CL1         93.3240    70.7900   -13.4540 cl         1 HOS      -0.213000
     12 C10         91.1060    71.0440   -11.9340 ca         1 HOS      -0.086000
     13 C9          90.3840    70.9190   -10.7550 ca         1 HOS      -0.161300
     14 C8          88.9110    71.2820   -10.7470 c3         1 HOS       0.247600
     15 O4          88.3870    71.4250    -9.4600 oh         1 HOS      -0.649000
     16 C7          88.1280    70.2340   -11.5870 c3         1 HOS       0.055500
     17 N6          86.7020    70.4560   -11.5190 n7         1 HOS      -0.842400
     18 C28         86.2720    71.7010   -12.1250 c3         1 HOS       0.145100
     19 C6          88.4430    68.8610   -11.0100 c          1 HOS       0.597100
     20 O3          88.0580    68.5440    -9.8910 o          1 HOS      -0.601100
     21 N2          89.1870    68.0590   -11.7900 ns         1 HOS      -0.482900
     22 C5          89.7290    66.8090   -11.3220 c3         1 HOS       0.059900
     23 C25         89.6710    65.6870   -12.3280 c2         1 HOS      -0.103400
     24 C27         90.2130    64.3850   -11.8170 c3         1 HOS      -0.065900
     25 C26         89.1460    65.8210   -13.5400 c2         1 HOS      -0.312000
     26 C4          91.1870    67.0480   -10.8970 c          1 HOS       0.584100
     27 O2          92.0590    67.2390   -11.7250 o          1 HOS      -0.596100
     28 N1          91.3790    67.0510    -9.5670 ns         1 HOS      -0.491900
     29 C3          92.6680    67.1490    -8.9130 c3         1 HOS       0.007700
     30 C14         92.8740    65.7720    -8.2720 c          1 HOS       0.586100
     31 O6          92.2110    65.4240    -7.3060 o          1 HOS      -0.609100
     32 N3          93.7450    64.9300    -8.8550 n          1 HOS      -0.404800
     33 C29         94.4980    65.1380   -10.0940 c5         1 HOS       0.122200
     34 C30         95.1600    63.8140   -10.2760 c2         1 HOS      -0.261200
     35 C31         94.8010    62.9470    -9.3400 c2         1 HOS      -0.179200
     36 C15         93.8340    63.5600    -8.3690 c5         1 HOS       0.036900
     37 C16         94.3370    63.4200    -6.9280 c          1 HOS       0.621100
     38 O7          93.9100    62.5400    -6.2080 o          1 HOS      -0.579100
     39 N4          95.3280    64.2740    -6.5830 ns         1 HOS      -0.420100
     40 C17         96.0660    64.1920    -5.3770 ce         1 HOS      -0.031600
     41 C32         95.4900    64.4060    -4.1840 c2         1 HOS      -0.097400
     42 C35         94.0650    64.8550    -4.0710 c3         1 HOS      -0.051900
     43 C33         96.1710    64.1500    -2.8690 c3         1 HOS      -0.032200
     44 C34         95.4750    63.0380    -2.0830 c3         1 HOS      -0.084100
     45 C18         97.5160    63.8360    -5.5610 c          1 HOS       0.558300
     46 O8          98.4110    64.4170    -4.9590 o          1 HOS      -0.652100
     47 N5          97.7140    62.8470    -6.4510 ns         1 HOS      -0.358100
     48 C19         98.8960    62.2350    -6.9020 ce         1 HOS      -0.153600
     49 C36         98.5650    61.1490    -7.9260 c          1 HOS       0.719200
     50 O9          97.3420    60.9530    -8.1200 o          1 HOS      -0.734000
     51 O10         99.5100    60.5620    -8.4700 o          1 HOS      -0.734000
     52 C20        100.1320    62.5400    -6.4950 cf         1 HOS      -0.244200
     53 C21        101.4370    61.8980    -6.9210 c          1 HOS       0.753200
     54 O11        102.0460    62.4550    -7.8540 o          1 HOS      -0.751000
     55 O12        101.8330    60.9490    -6.2180 o          1 HOS      -0.751000
     56 H23         95.5600    68.9450    -8.2390 hc         1 HOS       0.044033
     57 H23A        96.1070    67.9680    -6.8820 hc         1 HOS       0.044033
     58 H23B        95.4200    67.1940    -8.2900 hc         1 HOS       0.044033
     59 H22         93.8110    67.3030    -6.3220 hc         1 HOS       0.061700
     60 H22A        93.9700    69.0320    -6.2990 hc         1 HOS       0.061700
     61 H24         91.5770    69.3510    -6.4130 hc         1 HOS       0.052033
     62 H24A        90.5830    68.5390    -7.6170 hc         1 HOS       0.052033
     63 H24B        91.3900    67.6000    -6.3700 hc         1 HOS       0.052033
     64 H13         90.4820    70.3720    -8.6890 ha         1 HOS       0.141000
     65 HO5         94.7260    69.7580   -11.7480 ho         1 HOS       0.477000
     66 H10         90.6470    71.4600   -12.8230 ha         1 HOS       0.115000
     67 H8          88.8000    72.2500   -11.2470 h1         1 HOS       0.066700
     68 HO4         88.0610    70.5640    -9.1650 ho         1 HOS       0.478000
     69 H7          88.5160    70.3040   -12.6160 h1         1 HOS       0.032700
     70 HN6         86.2290    69.6900   -11.9810 hn         1 HOS       0.417000
     71 H28         86.5450    72.5530   -11.5010 h1         1 HOS       0.032033
     72 H28A        86.6810    71.8760   -13.1290 h1         1 HOS       0.032033
     73 H28B        85.1860    71.6980   -12.2030 h1         1 HOS       0.032033
     74 HN2         89.5440    68.4320   -12.6570 hn         1 HOS       0.327500
     75 H5          89.1350    66.5050   -10.4570 h1         1 HOS       0.096700
     76 H27         90.0690    63.5860   -12.5420 hc         1 HOS       0.053033
     77 H27A        91.2820    64.4440   -11.5980 hc         1 HOS       0.053033
     78 H27B        89.7170    64.0950   -10.8880 hc         1 HOS       0.053033
     79 H26         88.7310    66.7510   -13.9050 ha         1 HOS       0.161500
     80 H26A        89.1050    64.9790   -14.2190 ha         1 HOS       0.161500
     81 HN1         90.5890    66.8290    -8.9810 hn         1 HOS       0.331500
     82 H3          93.4130    67.3330    -9.6850 h1         1 HOS       0.110700
     83 H29         93.8420    65.3820   -10.9330 h1         1 HOS       0.055200
     84 H29A        95.2260    65.9470    -9.9970 h1         1 HOS       0.055200
     85 H30         95.8400    63.6210   -11.0930 ha         1 HOS       0.214000
     86 H31         95.1430    61.9280    -9.2440 ha         1 HOS       0.266000
     87 H15         92.8600    63.0600    -8.4030 h1         1 HOS       0.086700
     88 HN4         95.6830    64.8880    -7.3030 hn         1 HOS       0.323500
     89 H35         93.9530    65.5210    -3.2140 hc         1 HOS       0.033033
     90 H35A        93.7230    65.3780    -4.9610 hc         1 HOS       0.033033
     91 H35B        93.3910    64.0110    -3.9080 hc         1 HOS       0.033033
     92 H33         97.2190    63.8960    -2.9980 hc         1 HOS       0.056200
     93 H33A        96.1420    65.0730    -2.2810 hc         1 HOS       0.056200
     94 H34         95.4630    62.1070    -2.6510 hc         1 HOS       0.025700
     95 H34A        96.0030    62.8500    -1.1480 hc         1 HOS       0.025700
     96 H34B        94.4450    63.2910    -1.8330 hc         1 HOS       0.025700
     97 HN5         96.9120    62.3990    -6.8830 hn         1 HOS       0.340500
     98 H20        100.2500    63.3250    -5.7580 ha         1 HOS       0.145000
@<TRIPOS>BOND
     1     1     2 1   
     2     1    56 1   
     3     1    57 1   
     4     1    58 1   
     5     2     3 1   
     6     2    59 1   
     7     2    60 1   
     8     3     4 1   
     9     3     5 1   
    10     3    29 1   
    11     4    61 1   
    12     4    62 1   
    13     4    63 1   
    14     5     6 1   
    15     6     7 ar  
    16     6     8 ar  
    17     7    13 ar  
    18     7    64 1   
    19     8     9 1   
    20     8    10 ar  
    21     9    65 1   
    22    10    11 1   
    23    10    12 ar  
    24    12    13 ar  
    25    12    66 1   
    26    13    14 1   
    27    14    15 1   
    28    14    16 1   
    29    14    67 1   
    30    15    68 1   
    31    16    17 1   
    32    16    19 1   
    33    16    69 1   
    34    17    18 1   
    35    17    70 1   
    36    18    71 1   
    37    18    72 1   
    38    18    73 1   
    39    19    20 2   
    40    19    21 1   
    41    21    22 1   
    42    21    74 1   
    43    22    23 1   
    44    22    26 1   
    45    22    75 1   
    46    23    24 1   
    47    23    25 2   
    48    24    76 1   
    49    24    77 1   
    50    24    78 1   
    51    25    79 1   
    52    25    80 1   
    53    26    27 2   
    54    26    28 1   
    55    28    29 1   
    56    28    81 1   
    57    29    30 1   
    58    29    82 1   
    59    30    31 2   
    60    30    32 1   
    61    32    33 1   
    62    32    36 1   
    63    33    34 1   
    64    33    83 1   
    65    33    84 1   
    66    34    35 2   
    67    34    85 1   
    68    35    36 1   
    69    35    86 1   
    70    36    37 1   
    71    36    87 1   
    72    37    38 2   
    73    37    39 1   
    74    39    40 1   
    75    39    88 1   
    76    40    41 2   
    77    40    45 1   
    78    41    42 1   
    79    41    43 1   
    80    42    89 1   
    81    42    90 1   
    82    42    91 1   
    83    43    44 1   
    84    43    92 1   
    85    43    93 1   
    86    44    94 1   
    87    44    95 1   
    88    44    96 1   
    89    45    46 2   
    90    45    47 1   
    91    47    48 1   
    92    47    97 1   
    93    48    49 1   
    94    48    52 2   
    95    49    50 1   
    96    49    51 1   
    97    52    53 1   
    98    52    98 1   
    99    53    54 1   
   100    53    55 1   
@<TRIPOS>SUBSTRUCTURE
     1 HOS         1 TEMP              0 ****  ****    0 ROOT
