@<TRIPOS>MOLECULE
HOS
   98   100     1     0     0
SMALL
No Charge or Current Charge


@<TRIPOS>ATOM
      1 C23         95.4340    67.1390    -7.7060 c3         1 HOS      -0.092100
      2 C22         94.0400    67.3550    -7.0700 c3         1 HOS      -0.072400
      3 C2          92.8880    67.7500    -8.0480 c3         1 HOS       0.213000
      4 C24         91.6400    68.1180    -7.1960 c3         1 HOS      -0.125100
      5 O1          93.3820    68.9600    -8.6850 os         1 HOS      -0.366100
      6 C1          92.7910    69.5450    -9.7890 ca         1 HOS       0.107100
      7 C13         91.5620    70.2160    -9.6630 ca         1 HOS      -0.085000
      8 C12         93.4350    69.4860   -11.0470 ca         1 HOS       0.162100
      9 O5          94.6450    68.8530   -11.1870 oh         1 HOS      -0.497100
     10 C11         92.8130    70.0680   -12.1710 ca         1 HOS       0.034000
     11 Cl1         93.5730    69.9810   -13.7600 cl         1 HOS      -0.213000
     12 C10         91.5660    70.7010   -12.0450 ca         1 HOS      -0.086000
     13 C9          90.9270    70.7760   -10.7910 ca         1 HOS      -0.161300
     14 C8          89.5140    71.3590   -10.6950 c3         1 HOS       0.247600
     15 O4          89.2300    71.8690    -9.3960 oh         1 HOS      -0.649000
     16 C7          88.3870    70.3230   -11.0100 c3         1 HOS       0.055500
     17 N6          87.1220    70.6760   -10.2470 n7         1 HOS      -0.842400
     18 C28         86.3260    71.7920   -10.8030 c3         1 HOS       0.145100
     19 C6          88.8810    68.8520   -10.7650 c          1 HOS       0.597100
     20 O3          88.7590    68.2560    -9.7020 o          1 HOS      -0.601100
     21 N2          89.4240    68.2360   -11.8730 ns         1 HOS      -0.482900
     22 C5          89.8560    66.8260   -11.9540 c3         1 HOS       0.059900
     23 C25         89.7500    66.3740   -13.4080 c2         1 HOS      -0.103400
     24 C27         88.8740    65.1500   -13.6000 c3         1 HOS      -0.065900
     25 C26         90.3610    66.9990   -14.4290 c2         1 HOS      -0.312000
     26 C4          91.2640    66.5920   -11.3170 c          1 HOS       0.584100
     27 O2          92.2130    66.1350   -11.9400 o          1 HOS      -0.596100
     28 N1          91.3850    66.9270    -9.9830 ns         1 HOS      -0.491900
     29 C3          92.5930    66.6490    -9.1460 c3         1 HOS       0.007700
     30 C14         92.4110    65.2380    -8.5090 c          1 HOS       0.586100
     31 O6          91.4380    64.9880    -7.8060 o          1 HOS      -0.609100
     32 N3          93.4210    64.2630    -8.6780 n          1 HOS      -0.404800
     33 C29         94.1870    64.1410    -9.9470 c5         1 HOS       0.122200
     34 C30         94.7110    62.7300    -9.8660 c2         1 HOS      -0.261200
     35 C31         94.2440    62.0750    -8.8030 c2         1 HOS      -0.179200
     36 C15         93.3260    62.9410    -7.9640 c5         1 HOS       0.036900
     37 C16         93.7760    62.9600    -6.4700 c          1 HOS       0.621100
     38 O7          93.3340    62.2620    -5.5670 o          1 HOS      -0.579100
     39 N4          94.8110    63.8670    -6.3250 ns         1 HOS      -0.420100
     40 C17         95.5250    64.3480    -5.1830 ce         1 HOS      -0.031600
     41 C32         95.0070    64.5650    -3.9350 c2         1 HOS      -0.097400
     42 C35         93.5200    64.5100    -3.5980 c3         1 HOS      -0.051900
     43 C33         95.8340    64.9040    -2.6920 c3         1 HOS      -0.032200
     44 C34         96.6170    63.6880    -2.1570 c3         1 HOS      -0.084100
     45 C18         97.0090    64.4850    -5.5050 c          1 HOS       0.558300
     46 O8          97.7340    65.3570    -5.0410 o          1 HOS      -0.652100
     47 N5          97.5020    63.4820    -6.3230 ns         1 HOS      -0.358100
     48 C19         98.8350    63.1300    -6.6880 ce         1 HOS      -0.153600
     49 C36         98.9400    61.6030    -6.8350 c          1 HOS       0.719200
     50 O9          97.9930    60.9350    -6.4370 o          1 HOS      -0.734000
     51 O10         99.8600    61.0960    -7.4550 o          1 HOS      -0.734000
     52 C20         99.7890    64.0830    -6.9850 cf         1 HOS      -0.244200
     53 C21        101.2470    63.9710    -7.3180 c          1 HOS       0.753200
     54 O11        101.7860    64.9890    -7.7270 o          1 HOS      -0.751000
     55 O12        101.8810    62.9660    -7.0430 o          1 HOS      -0.751000
     56 H23         95.7660    68.0310    -8.2510 hc         1 HOS       0.044033
     57 H23A        96.1760    66.9350    -6.9250 hc         1 HOS       0.044033
     58 H23B        95.4350    66.2940    -8.3980 hc         1 HOS       0.044033
     59 H22         93.7590    66.4570    -6.5070 hc         1 HOS       0.061700
     60 H22A        94.1420    68.1470    -6.3180 hc         1 HOS       0.061700
     61 H24         91.8140    69.0430    -6.6340 hc         1 HOS       0.052033
     62 H24A        90.7410    68.2500    -7.8030 hc         1 HOS       0.052033
     63 H24B        91.4210    67.3290    -6.4670 hc         1 HOS       0.052033
     64 H13         91.0890    70.2850    -8.6900 ha         1 HOS       0.141000
     65 HO5         94.9040    68.9090   -12.1310 ho         1 HOS       0.477000
     66 H10         91.0880    71.1190   -12.9280 ha         1 HOS       0.115000
     67 H8          89.4260    72.1770   -11.4240 h1         1 HOS       0.066700
     68 HO4         88.2830    71.5740    -9.3100 ho         1 HOS       0.478000
     69 H7          88.1780    70.3820   -12.0870 h1         1 HOS       0.032700
     70 HN6         86.5130    69.8430   -10.2330 hn         1 HOS       0.417000
     71 H28         86.9130    72.7190   -10.8400 h1         1 HOS       0.032033
     72 H28A        85.9880    71.5600   -11.8220 h1         1 HOS       0.032033
     73 H28B        85.4380    71.9770   -10.1850 h1         1 HOS       0.032033
     74 HN2         89.4670    68.7870   -12.7210 hn         1 HOS       0.327500
     75 H5          89.1610    66.2330   -11.3430 h1         1 HOS       0.096700
     76 H27         88.8200    64.8510   -14.6540 hc         1 HOS       0.053033
     77 H27A        89.2620    64.2940   -13.0350 hc         1 HOS       0.053033
     78 H27B        87.8490    65.3400   -13.2600 hc         1 HOS       0.053033
     79 H26         90.9960    67.8720   -14.2720 ha         1 HOS       0.161500
     80 H26A        90.2610    66.6510   -15.4570 ha         1 HOS       0.161500
     81 HN1         90.5510    67.3060    -9.5410 hn         1 HOS       0.331500
     82 H3          93.4690    66.6120    -9.8020 h1         1 HOS       0.110700
     83 H29         93.5340    64.2670   -10.8200 h1         1 HOS       0.055200
     84 H29A        95.0010    64.8730   -10.0150 h1         1 HOS       0.055200
     85 H30         95.3890    62.2880   -10.6010 ha         1 HOS       0.214000
     86 H31         94.4960    61.0360    -8.5660 ha         1 HOS       0.266000
     87 H15         92.2990    62.5540    -7.9880 h1         1 HOS       0.086700
     88 HN4         95.1720    64.2090    -7.2100 hn         1 HOS       0.323500
     89 H35         93.2230    65.3330    -2.9360 hc         1 HOS       0.033033
     90 H35A        92.8900    64.6100    -4.4880 hc         1 HOS       0.033033
     91 H35B        93.2620    63.5710    -3.0950 hc         1 HOS       0.033033
     92 H33         96.5290    65.7260    -2.8920 hc         1 HOS       0.056200
     93 H33A        95.2000    65.2750    -1.8770 hc         1 HOS       0.056200
     94 H34         97.3240    63.3140    -2.9060 hc         1 HOS       0.025700
     95 H34A        97.1830    63.9640    -1.2590 hc         1 HOS       0.025700
     96 H34B        95.9310    62.8750    -1.8940 hc         1 HOS       0.025700
     97 HN5         96.8630    62.7020    -6.4450 hn         1 HOS       0.340500
     98 H20         99.4580    65.1180    -6.9590 ha         1 HOS       0.145000
@<TRIPOS>BOND
     1     1     2 1   
     2     1    56 1   
     3     1    57 1   
     4     1    58 1   
     5     2     3 1   
     6     2    59 1   
     7     2    60 1   
     8     3     4 1   
     9     3     5 1   
    10     3    29 1   
    11     4    61 1   
    12     4    62 1   
    13     4    63 1   
    14     5     6 1   
    15     6     7 ar  
    16     6     8 ar  
    17     7    13 ar  
    18     7    64 1   
    19     8     9 1   
    20     8    10 ar  
    21     9    65 1   
    22    10    11 1   
    23    10    12 ar  
    24    12    13 ar  
    25    12    66 1   
    26    13    14 1   
    27    14    15 1   
    28    14    16 1   
    29    14    67 1   
    30    15    68 1   
    31    16    17 1   
    32    16    19 1   
    33    16    69 1   
    34    17    18 1   
    35    17    70 1   
    36    18    71 1   
    37    18    72 1   
    38    18    73 1   
    39    19    20 2   
    40    19    21 1   
    41    21    22 1   
    42    21    74 1   
    43    22    23 1   
    44    22    26 1   
    45    22    75 1   
    46    23    24 1   
    47    23    25 2   
    48    24    76 1   
    49    24    77 1   
    50    24    78 1   
    51    25    79 1   
    52    25    80 1   
    53    26    27 2   
    54    26    28 1   
    55    28    29 1   
    56    28    81 1   
    57    29    30 1   
    58    29    82 1   
    59    30    31 2   
    60    30    32 1   
    61    32    33 1   
    62    32    36 1   
    63    33    34 1   
    64    33    83 1   
    65    33    84 1   
    66    34    35 2   
    67    34    85 1   
    68    35    36 1   
    69    35    86 1   
    70    36    37 1   
    71    36    87 1   
    72    37    38 2   
    73    37    39 1   
    74    39    40 1   
    75    39    88 1   
    76    40    41 2   
    77    40    45 1   
    78    41    42 1   
    79    41    43 1   
    80    42    89 1   
    81    42    90 1   
    82    42    91 1   
    83    43    44 1   
    84    43    92 1   
    85    43    93 1   
    86    44    94 1   
    87    44    95 1   
    88    44    96 1   
    89    45    46 2   
    90    45    47 1   
    91    47    48 1   
    92    47    97 1   
    93    48    49 1   
    94    48    52 2   
    95    49    50 1   
    96    49    51 1   
    97    52    53 1   
    98    52    98 1   
    99    53    54 1   
   100    53    55 1   
@<TRIPOS>SUBSTRUCTURE
     1 HOS         1 TEMP              0 ****  ****    0 ROOT
