@<TRIPOS>MOLECULE
HOT
   64    68     1     0     0
SMALL
bcc


@<TRIPOS>ATOM
      1 CAA          0.7280     4.0710     0.3530 ca         1 HOT      -0.120000
      2 CAB         -0.6050     3.7060     0.2060 ca         1 HOT      -0.080300
      3 CAC         -0.8900     2.4710    -0.3930 ca         1 HOT       0.155600
      4 CAD          0.1390     1.6520    -0.8380 ca         1 HOT      -0.068000
      5 CAE          1.4670     2.0160    -0.6460 ca         1 HOT      -0.146600
      6 CAF          1.7600     3.2400    -0.0520 ca         1 HOT      -0.113000
      7 CAG          2.5160     1.0820    -1.1510 c          1 HOT       0.689700
      8 CAJ          4.8760     0.4360    -0.7750 ca         1 HOT       0.068600
      9 CAK          5.8110     0.3560     0.2580 ca         1 HOT      -0.138000
     10 CAL          7.0000    -0.3290     0.0750 ca         1 HOT      -0.168300
     11 CAM          7.2750    -0.9590    -1.1330 ca         1 HOT      -0.105000
     12 CAN          6.3450    -0.8740    -2.1550 ca         1 HOT      -0.110000
     13 CAO          5.1540    -0.1820    -1.9940 ca         1 HOT      -0.115000
     14 CAP         -1.7040     4.6120     0.6710 c3         1 HOT      -0.054800
     15 CAR         -2.8020     0.9030    -0.3910 ca         1 HOT       0.983900
     16 CAT         -2.6980    -1.2350     0.1720 ca         1 HOT       0.851500
     17 CAV         -4.6590    -0.3720    -0.4570 ca         1 HOT       0.995900
     18 CAY         -2.4130    -3.5880     0.8470 cc         1 HOT       0.434400
     19 CBA         -0.3150    -3.6200     1.2270 cd         1 HOT       0.293200
     20 CBB         -0.5910    -2.3470     0.8470 cc         1 HOT      -0.216600
     21 CBD         -6.6650    -1.7800    -0.5330 c6         1 HOT       0.224800
     22 CBE         -7.8070    -1.6330     0.4650 c6         1 HOT      -0.116900
     23 CBF         -8.7470    -0.5170     0.0410 c6         1 HOT       0.149100
     24 CBG         -7.9630     0.7770    -0.1450 c6         1 HOT      -0.116900
     25 CBH         -6.8130     0.5820    -1.1270 c6         1 HOT       0.224800
     26 CBJ          7.9750    -0.4470     1.2060 c3         1 HOT       0.720200
     27 FBK          7.7990    -1.5890     1.8890 f          1 HOT      -0.235300
     28 FBL          9.2420    -0.4490     0.7770 f          1 HOT      -0.235300
     29 FBM          7.8610     0.5500     2.0890 f          1 HOT      -0.235300
     30 NAH          3.7190     1.1750    -0.5220 ns         1 HOT      -0.473100
     31 NAQ         -2.2350     2.1150    -0.5740 nu         1 HOT      -0.741300
     32 NAS         -2.0370    -0.1060     0.0320 nb         1 HOT      -0.850000
     33 NAU         -3.9700    -1.4550    -0.0450 nb         1 HOT      -0.865000
     34 NAW         -4.1010     0.8280    -0.6420 nb         1 HOT      -0.894000
     35 NAX         -1.9460    -2.3290     0.6010 na         1 HOT      -0.245700
     36 NAZ         -1.4590    -4.3830     1.2240 nd         1 HOT      -0.670000
     37 NBC         -5.9650    -0.5180    -0.7030 nh         1 HOT      -0.759300
     38 OAI          2.2860     0.2950    -2.0500 o          1 HOT      -0.569100
     39 H1           0.9660     5.0270     0.8010 ha         1 HOT       0.138000
     40 H2          -0.0920     0.7210    -1.3330 ha         1 HOT       0.175000
     41 H3           2.7800     3.5790     0.0750 ha         1 HOT       0.135000
     42 H4           5.5910     0.8400     1.2020 ha         1 HOT       0.144000
     43 H5           8.1970    -1.5030    -1.2890 ha         1 HOT       0.150000
     44 H6           6.5510    -1.3490    -3.1050 ha         1 HOT       0.142000
     45 H7           4.4640    -0.1230    -2.8200 ha         1 HOT       0.167000
     46 H8          -2.2960     4.9920    -0.1650 hc         1 HOT       0.048700
     47 H9          -2.3920     4.0990     1.3450 hc         1 HOT       0.048700
     48 H10         -1.3000     5.4750     1.1970 hc         1 HOT       0.048700
     49 H11         -3.4530    -3.8450     0.7310 h5         1 HOT       0.071100
     50 H12          0.6430    -4.0320     1.5020 h4         1 HOT       0.041100
     51 H13          0.0270    -1.4740     0.7290 h4         1 HOT       0.194000
     52 H14         -5.9660    -2.5440    -0.2090 h1         1 HOT       0.067450
     53 H15         -7.0600    -2.0860    -1.5070 h1         1 HOT       0.067450
     54 H16         -8.3450    -2.5820     0.5270 hc         1 HOT       0.062950
     55 H17         -7.4000    -1.4180     1.4580 hc         1 HOT       0.062950
     56 H18         -9.1810    -0.7930    -0.9340 h1         1 HOT       0.026700
     57 H19         -8.6160     1.5690    -0.5240 hc         1 HOT       0.062950
     58 H20         -7.5690     1.1090     0.8210 hc         1 HOT       0.062950
     59 H21         -7.2080     0.3510    -2.1230 h1         1 HOT       0.067450
     60 H22         -6.2200     1.4870    -1.2120 h1         1 HOT       0.067450
     61 H23          3.7530     1.7410     0.3120 hn         1 HOT       0.323500
     62 H24         -2.8870     2.8510    -0.8010 hn         1 HOT       0.461800
     63 OBI         -9.7610    -0.3990     1.0150 oh         1 HOT      -0.590800
     64 H25        -10.3930     0.2610     0.7130 ho         1 HOT       0.405000
@<TRIPOS>BOND
     1     1     2 ar  
     2     1     6 ar  
     3     1    39 1   
     4     2     3 ar  
     5     2    14 1   
     6     3     4 ar  
     7     3    31 1   
     8     4     5 ar  
     9     4    40 1   
    10     5     6 ar  
    11     5     7 1   
    12     6    41 1   
    13     7    30 1   
    14     7    38 2   
    15     8     9 ar  
    16     8    13 ar  
    17     8    30 1   
    18     9    10 ar  
    19     9    42 1   
    20    10    11 ar  
    21    10    26 1   
    22    11    12 ar  
    23    11    43 1   
    24    12    13 ar  
    25    12    44 1   
    26    13    45 1   
    27    14    46 1   
    28    14    47 1   
    29    14    48 1   
    30    15    31 1   
    31    15    32 ar  
    32    15    34 ar  
    33    16    32 ar  
    34    16    33 ar  
    35    16    35 1   
    36    17    33 ar  
    37    17    34 ar  
    38    17    37 1   
    39    18    35 1   
    40    18    36 2   
    41    18    49 1   
    42    19    20 2   
    43    19    36 1   
    44    19    50 1   
    45    20    35 1   
    46    20    51 1   
    47    21    22 1   
    48    21    37 1   
    49    21    52 1   
    50    21    53 1   
    51    22    23 1   
    52    22    54 1   
    53    22    55 1   
    54    23    24 1   
    55    23    56 1   
    56    23    63 1   
    57    24    25 1   
    58    24    57 1   
    59    24    58 1   
    60    25    37 1   
    61    25    59 1   
    62    25    60 1   
    63    26    27 1   
    64    26    28 1   
    65    26    29 1   
    66    30    61 1   
    67    31    62 1   
    68    63    64 1   
@<TRIPOS>SUBSTRUCTURE
     1 HOT         1 TEMP              0 ****  ****    0 ROOT
