@<TRIPOS>MOLECULE
HOT
   64    68     1     0     0
SMALL
No Charge or Current Charge


@<TRIPOS>ATOM
      1 CAA          0.9540     3.7480     0.9090 ca         1 HOT      -0.102000
      2 CAB         -0.4070     3.4130     0.7780 ca         1 HOT      -0.080300
      3 CAC         -0.7670     2.1510     0.2480 ca         1 HOT       0.294000
      4 CAD          0.2490     1.2650    -0.1660 ca         1 HOT      -0.050000
      5 CAE          1.6190     1.5910    -0.0350 ca         1 HOT      -0.146600
      6 CAF          1.9580     2.8500     0.5140 ca         1 HOT      -0.095000
      7 CAG          2.6680     0.5890    -0.4870 c          1 HOT       0.622700
      8 CAJ          5.2300     0.3550    -0.6340 ca         1 HOT      -0.024000
      9 CAK          6.4070     1.0920    -0.4020 ca         1 HOT      -0.120000
     10 CAL          7.6820     0.5430    -0.6630 ca         1 HOT      -0.168300
     11 CAM          7.7660    -0.7780    -1.1510 ca         1 HOT      -0.087000
     12 CAN          6.5990    -1.5230    -1.3840 ca         1 HOT      -0.092000
     13 CAO          5.3360    -0.9630    -1.1300 ca         1 HOT      -0.097000
     14 CAP         -1.4650     4.4220     1.2270 c3         1 HOT      -0.054800
     15 CAR         -2.8440     0.6400     0.1130 ca         1 HOT       0.457900
     16 CAT         -2.9630    -1.6330     0.3880 ca         1 HOT       0.325500
     17 CAV         -4.8310    -0.3780    -0.1310 ca         1 HOT       0.469900
     18 CAY         -3.0190    -3.9530     1.1610 cc         1 HOT       0.434400
     19 CBA         -0.9250    -4.4630     0.8740 cd         1 HOT       0.227900
     20 CBB         -1.0280    -3.1550     0.4660 cc         1 HOT      -0.184000
     21 CBD         -7.0140    -1.5640    -0.6860 c6         1 HOT       0.224800
     22 CBE         -8.4770    -1.4380    -0.2060 c6         1 HOT      -0.116900
     23 CBF         -9.1510    -0.1890    -0.8020 c6         1 HOT       0.172300
     24 CBG         -8.3340     1.0620    -0.4280 c6         1 HOT      -0.116900
     25 CBH         -6.8690     0.9340    -0.9060 c6         1 HOT       0.224800
     26 CBJ          8.9520     1.3610    -0.3930 c3         1 HOT       0.356300
     27 FBK          9.3510     1.2390     0.8930 f          1 HOT      -0.114000
     28 FBL          9.9920     0.9750    -1.1680 f          1 HOT      -0.114000
     29 FBM          8.7690     2.6820    -0.6260 f          1 HOT      -0.114000
     30 NAH          3.9910     0.9930    -0.3440 ns         1 HOT      -0.147000
     31 NAQ         -2.1270     1.8200     0.1090 nu         1 HOT      -0.934900
     32 NAS         -2.2140    -0.5080     0.3870 nb         1 HOT      -0.324000
     33 NAU         -4.2890    -1.5820     0.1280 nb         1 HOT      -0.339000
     34 NAW         -4.1410     0.7720    -0.1460 nb         1 HOT      -0.368000
     35 NAX         -2.3590    -2.8600     0.6580 na         1 HOT      -0.195000
     36 NAZ         -2.1530    -4.9520     1.3020 nd         1 HOT      -0.670000
     37 NBC         -6.2280    -0.3210    -0.3920 nh         1 HOT      -0.759300
     38 OAI          2.3420    -0.5000    -0.9460 o          1 HOT      -0.569100
     39 H1           1.2410     4.7120     1.3220 ha         1 HOT       0.120000
     40 H2          -0.0270     0.3170    -0.6130 ha         1 HOT       0.157000
     41 H3           2.9940     3.1560     0.6380 ha         1 HOT       0.117000
     42 H4           6.3290     2.1060    -0.0120 ha         1 HOT       0.126000
     43 H5           8.7340    -1.2350    -1.3480 ha         1 HOT       0.132000
     44 H6           6.6740    -2.5410    -1.7610 ha         1 HOT       0.124000
     45 H7           4.4590    -1.5740    -1.3200 ha         1 HOT       0.149000
     46 H8          -2.0720     4.7620     0.3800 hc         1 HOT       0.048700
     47 H9          -2.1370     3.9860     1.9760 hc         1 HOT       0.048700
     48 H10         -1.0120     5.3120     1.6810 hc         1 HOT       0.048700
     49 H11         -4.0770    -3.9610     1.3980 h5         1 HOT       0.071100
     50 H12         -0.0350    -5.0810     0.8840 h4         1 HOT       0.041100
     51 H13         -0.2910    -2.4630     0.0770 h4         1 HOT       0.176000
     52 H14         -6.5840    -2.4470    -0.1910 h1         1 HOT       0.067450
     53 H15         -7.0020    -1.7660    -1.7680 h1         1 HOT       0.067450
     54 H16         -9.0350    -2.3400    -0.4920 hc         1 HOT       0.062950
     55 H17         -8.4970    -1.3900     0.8910 hc         1 HOT       0.062950
     56 H18         -9.1690    -0.2870    -1.8980 h1         1 HOT       0.026700
     57 H19         -8.7850     1.9580    -0.8750 hc         1 HOT       0.062950
     58 H20         -8.3480     1.2100     0.6600 hc         1 HOT       0.062950
     59 H21         -6.8430     0.9430    -2.0060 h1         1 HOT       0.067450
     60 H22         -6.3380     1.8350    -0.5650 h1         1 HOT       0.067450
     61 H23          4.0960     1.9210     0.0420 hn         1 HOT       0.157000
     62 H24         -2.7460     2.6270     0.1090 hn         1 HOT       0.517000
     63 OBI        -10.4870    -0.0730    -0.3040 oh         1 HOT      -0.653000
     64 H25        -10.9000     0.6830    -0.7760 ho         1 HOT       0.444000
@<TRIPOS>BOND
     1     1     2 ar  
     2     1     6 ar  
     3     1    39 1   
     4     2     3 ar  
     5     2    14 1   
     6     3     4 ar  
     7     3    31 1   
     8     4     5 ar  
     9     4    40 1   
    10     5     6 ar  
    11     5     7 1   
    12     6    41 1   
    13     7    30 1   
    14     7    38 2   
    15     8     9 ar  
    16     8    13 ar  
    17     8    30 1   
    18     9    10 ar  
    19     9    42 1   
    20    10    11 ar  
    21    10    26 1   
    22    11    12 ar  
    23    11    43 1   
    24    12    13 ar  
    25    12    44 1   
    26    13    45 1   
    27    14    46 1   
    28    14    47 1   
    29    14    48 1   
    30    15    31 1   
    31    15    32 ar  
    32    15    34 ar  
    33    16    32 ar  
    34    16    33 ar  
    35    16    35 1   
    36    17    33 ar  
    37    17    34 ar  
    38    17    37 1   
    39    18    35 1   
    40    18    36 2   
    41    18    49 1   
    42    19    20 2   
    43    19    36 1   
    44    19    50 1   
    45    20    35 1   
    46    20    51 1   
    47    21    22 1   
    48    21    37 1   
    49    21    52 1   
    50    21    53 1   
    51    22    23 1   
    52    22    54 1   
    53    22    55 1   
    54    23    24 1   
    55    23    56 1   
    56    23    63 1   
    57    24    25 1   
    58    24    57 1   
    59    24    58 1   
    60    25    37 1   
    61    25    59 1   
    62    25    60 1   
    63    26    27 1   
    64    26    28 1   
    65    26    29 1   
    66    30    61 1   
    67    31    62 1   
    68    63    64 1   
@<TRIPOS>SUBSTRUCTURE
     1 HOT         1 TEMP              0 ****  ****    0 ROOT
