@<TRIPOS>MOLECULE
HOU
   54    57     1     0     0
SMALL
No Charge or Current Charge


@<TRIPOS>ATOM
      1 C01        146.8030    -5.4750    20.2040 ca         1 HOU      -0.106000
      2 C02        147.4900    -6.6540    20.5370 ca         1 HOU      -0.112000
      3 C03        147.0140    -7.8960    20.0840 ca         1 HOU      -0.097000
      4 C04        145.8390    -7.9840    19.2970 cp         1 HOU      -0.042000
      5 C05        145.1680    -6.7820    18.9620 ca         1 HOU      -0.097000
      6 C06        145.6430    -5.5390    19.4140 ca         1 HOU      -0.112000
      7 C07        145.3360    -9.3000    18.7990 cp         1 HOU      -0.049000
      8 C08        145.1710    -9.4670    17.4050 ca         1 HOU      -0.077000
      9 C09        144.7300   -10.6810    16.8700 ca         1 HOU      -0.124000
     10 C10        144.4510   -11.7570    17.7200 ca         1 HOU      -0.076000
     11 C11        144.5850   -11.6320    19.1210 ca         1 HOU      -0.140500
     12 C12        145.0220   -10.3890    19.6700 ca         1 HOU      -0.005300
     13 C13        145.0860   -10.1970    21.1900 c3         1 HOU      -0.057800
     14 C14        144.3360   -12.8340    19.9380 cc         1 HOU       0.471500
     15 C16        143.4800   -14.6640    20.4720 cc         1 HOU       0.682900
     16 C20        142.5900   -16.9300    21.1490 ca         1 HOU       0.308000
     17 C21        142.2350   -18.1300    20.5110 ca         1 HOU      -0.163000
     18 C22        142.1100   -19.3190    21.2500 ca         1 HOU      -0.086000
     19 C23        142.3350   -19.3100    22.6360 ca         1 HOU      -0.107000
     20 C24        142.6810   -18.1120    23.2900 ca         1 HOU      -0.056300
     21 C25        142.8030   -16.9250    22.5400 ca         1 HOU      -0.136000
     22 C26        142.9180   -18.1010    24.7950 c3         1 HOU       0.201100
     23 C28        141.7300   -17.7770    26.9960 c3         1 HOU       0.164800
     24 C29        142.2440   -19.0370    27.7610 c3         1 HOU       0.163600
     25 N17        144.3790   -14.4170    21.4010 nd         1 HOU      -0.429000
     26 N18        144.9440   -13.2150    21.0540 nd         1 HOU      -0.336000
     27 N19        142.6930   -15.7700    20.3850 nu         1 HOU      -0.932900
     28 N27        141.6380   -17.9490    25.5190 n7         1 HOU      -0.863400
     29 O15        143.4070   -13.7280    19.5110 os         1 HOU      -0.319000
     30 O30        143.6760   -19.1710    27.6820 oh         1 HOU      -0.662000
     31 H31        147.1710    -4.5120    20.5530 ha         1 HOU       0.113000
     32 H32        148.3920    -6.6050    21.1430 ha         1 HOU       0.114000
     33 H33        147.5590    -8.8020    20.3380 ha         1 HOU       0.117000
     34 H34        144.2680    -6.8210    18.3520 ha         1 HOU       0.117000
     35 H35        145.1120    -4.6260    19.1520 ha         1 HOU       0.114000
     36 H36        145.4030    -8.6430    16.7340 ha         1 HOU       0.120000
     37 H37        144.6190   -10.7930    15.7940 ha         1 HOU       0.119000
     38 H38        144.1350   -12.7010    17.2800 ha         1 HOU       0.123000
     39 H41        144.2540   -10.6990    21.6970 hc         1 HOU       0.057367
     40 H39        146.0250   -10.5900    21.5990 hc         1 HOU       0.057367
     41 H40        145.0110    -9.1440    21.4820 hc         1 HOU       0.057367
     42 H43        142.0590   -18.1470    19.4390 ha         1 HOU       0.110000
     43 H44        141.8380   -20.2460    20.7490 ha         1 HOU       0.114000
     44 H45        142.2340   -20.2320    23.2050 ha         1 HOU       0.127000
     45 H46        143.0510   -15.9980    23.0460 ha         1 HOU       0.151000
     46 H47        143.4190   -19.0360    25.0780 h1         1 HOU       0.050200
     47 H48        143.6020   -17.2770    25.0430 h1         1 HOU       0.050200
     48 H51        142.3660   -16.9170    27.2490 h1         1 HOU       0.036200
     49 H50        140.7280   -17.5510    27.3850 h1         1 HOU       0.036200
     50 H53        141.9470   -18.9410    28.8140 h1         1 HOU       0.021700
     51 H52        141.7480   -19.9330    27.3630 h1         1 HOU       0.021700
     52 H42        142.2400   -15.8140    19.4760 hn         1 HOU       0.513000
     53 H5         141.1750   -17.1150    25.1390 hn         1 HOU       0.411000
     54 H54        143.9120   -19.9860    28.1780 ho         1 HOU       0.441000
@<TRIPOS>BOND
     1     1     2 ar  
     2     1     6 ar  
     3     1    31 1   
     4     2     3 ar  
     5     2    32 1   
     6     3     4 ar  
     7     3    33 1   
     8     4     5 ar  
     9     4     7 1   
    10     5     6 ar  
    11     5    34 1   
    12     6    35 1   
    13     7     8 ar  
    14     7    12 ar  
    15     8     9 ar  
    16     8    36 1   
    17     9    10 ar  
    18     9    37 1   
    19    10    11 ar  
    20    10    38 1   
    21    11    12 ar  
    22    11    14 1   
    23    12    13 1   
    24    13    39 1   
    25    13    40 1   
    26    13    41 1   
    27    14    26 2   
    28    14    29 1   
    29    15    25 2   
    30    15    27 1   
    31    15    29 1   
    32    16    17 ar  
    33    16    21 ar  
    34    16    27 1   
    35    17    18 ar  
    36    17    42 1   
    37    18    19 ar  
    38    18    43 1   
    39    19    20 ar  
    40    19    44 1   
    41    20    21 ar  
    42    20    22 1   
    43    21    45 1   
    44    22    28 1   
    45    22    46 1   
    46    22    47 1   
    47    23    24 1   
    48    23    28 1   
    49    23    48 1   
    50    23    49 1   
    51    24    30 1   
    52    24    50 1   
    53    24    51 1   
    54    25    26 1   
    55    27    52 1   
    56    28    53 1   
    57    30    54 1   
@<TRIPOS>SUBSTRUCTURE
     1 HOU         1 TEMP              0 ****  ****    0 ROOT
