@<TRIPOS>MOLECULE
HOU
   54    57     1     0     0
SMALL
bcc


@<TRIPOS>ATOM
      1 C01        146.4320    -5.4450    20.1450 ca         1 HOU      -0.124000
      2 C02        147.2040    -6.5310    20.5380 ca         1 HOU      -0.130000
      3 C03        146.8670    -7.8110    20.1230 ca         1 HOU      -0.115000
      4 C04        145.7560    -8.0240    19.3070 cp         1 HOU      -0.042000
      5 C05        144.9940    -6.9270    18.9110 ca         1 HOU      -0.115000
      6 C06        145.3270    -5.6460    19.3300 ca         1 HOU      -0.130000
      7 C07        145.4140    -9.3870    18.8310 cp         1 HOU      -0.049000
      8 C08        145.4600    -9.6280    17.4600 ca         1 HOU      -0.095000
      9 C09        145.1730   -10.8810    16.9470 ca         1 HOU      -0.142000
     10 C10        144.8420   -11.9080    17.8090 ca         1 HOU      -0.094000
     11 C11        144.7820   -11.6840    19.1870 ca         1 HOU      -0.140500
     12 C12        145.0520   -10.4100    19.7210 ca         1 HOU      -0.005300
     13 C13        144.9120   -10.1250    21.1890 c3         1 HOU      -0.057800
     14 C14        144.4380   -12.8150    20.0410 cc         1 HOU       0.515900
     15 C16        143.6310   -14.7190    20.4960 cc         1 HOU       0.727300
     16 C20        142.6610   -16.8970    21.1160 ca         1 HOU       0.169600
     17 C21        141.8940   -17.9490    20.6140 ca         1 HOU      -0.181000
     18 C22        141.5430   -19.0030    21.4410 ca         1 HOU      -0.104000
     19 C23        141.9440   -19.0260    22.7680 ca         1 HOU      -0.125000
     20 C24        142.7190   -17.9860    23.2730 ca         1 HOU      -0.056300
     21 C25        143.0720   -16.9220    22.4490 ca         1 HOU      -0.154000
     22 C26        143.1430   -17.9950    24.7180 c3         1 HOU       0.201100
     23 C28        142.3020   -17.7600    27.0040 c3         1 HOU       0.164800
     24 C29        142.1880   -19.1180    27.6660 c3         1 HOU       0.140400
     25 N17        144.1740   -14.2800    21.5870 nd         1 HOU      -0.429000
     26 N18        144.6930   -13.0490    21.2760 nd         1 HOU      -0.336000
     27 N19        142.9740   -15.8620    20.2330 nu         1 HOU      -0.739300
     28 N27        141.9930   -17.7760    25.5820 n7         1 HOU      -0.808200
     29 O15        143.7600   -13.8540    19.4840 os         1 HOU      -0.407800
     30 O30        143.1990   -19.9820    27.1950 oh         1 HOU      -0.599800
     31 H31        146.6930    -4.4460    20.4710 ha         1 HOU       0.131000
     32 H32        148.0710    -6.3810    21.1680 ha         1 HOU       0.132000
     33 H33        147.4760    -8.6530    20.4300 ha         1 HOU       0.135000
     34 H34        144.1280    -7.0790    18.2780 ha         1 HOU       0.135000
     35 H35        144.7200    -4.8050    19.0200 ha         1 HOU       0.132000
     36 H36        145.7390    -8.8230    16.7920 ha         1 HOU       0.138000
     37 H37        145.2190   -11.0600    15.8820 ha         1 HOU       0.137000
     38 H38        144.6400   -12.8910    17.4050 ha         1 HOU       0.141000
     39 H41        144.0350   -10.6170    21.6060 hc         1 HOU       0.057367
     40 H39        145.7730   -10.4840    21.7550 hc         1 HOU       0.057367
     41 H40        144.8180    -9.0580    21.3730 hc         1 HOU       0.057367
     42 H43        141.5730   -17.9420    19.5790 ha         1 HOU       0.128000
     43 H44        140.9480   -19.8140    21.0400 ha         1 HOU       0.132000
     44 H45        141.6640   -19.8520    23.4080 ha         1 HOU       0.145000
     45 H46        143.6680   -16.1160    22.8520 ha         1 HOU       0.169000
     46 H47        143.5810   -18.9630    24.9580 h1         1 HOU       0.050200
     47 H48        143.9350   -17.2470    24.8720 h1         1 HOU       0.050200
     48 H51        143.2920   -17.3290    27.2170 h1         1 HOU       0.036200
     49 H50        141.5750   -17.1120    27.4980 h1         1 HOU       0.036200
     50 H53        142.2610   -18.9750    28.7530 h1         1 HOU       0.021700
     51 H52        141.1880   -19.5200    27.4610 h1         1 HOU       0.021700
     52 H42        142.6360   -15.9640    19.2870 hn         1 HOU       0.457800
     53 H5         141.5770   -16.8890    25.3300 hn         1 HOU       0.355800
     54 H54        143.0520   -20.8530    27.5740 ho         1 HOU       0.402000
@<TRIPOS>BOND
     1     1     2 ar  
     2     1     6 ar  
     3     1    31 1   
     4     2     3 ar  
     5     2    32 1   
     6     3     4 ar  
     7     3    33 1   
     8     4     5 ar  
     9     4     7 1   
    10     5     6 ar  
    11     5    34 1   
    12     6    35 1   
    13     7     8 ar  
    14     7    12 ar  
    15     8     9 ar  
    16     8    36 1   
    17     9    10 ar  
    18     9    37 1   
    19    10    11 ar  
    20    10    38 1   
    21    11    12 ar  
    22    11    14 1   
    23    12    13 1   
    24    13    39 1   
    25    13    40 1   
    26    13    41 1   
    27    14    26 2   
    28    14    29 1   
    29    15    25 2   
    30    15    27 1   
    31    15    29 1   
    32    16    17 ar  
    33    16    21 ar  
    34    16    27 1   
    35    17    18 ar  
    36    17    42 1   
    37    18    19 ar  
    38    18    43 1   
    39    19    20 ar  
    40    19    44 1   
    41    20    21 ar  
    42    20    22 1   
    43    21    45 1   
    44    22    28 1   
    45    22    46 1   
    46    22    47 1   
    47    23    24 1   
    48    23    28 1   
    49    23    48 1   
    50    23    49 1   
    51    24    30 1   
    52    24    50 1   
    53    24    51 1   
    54    25    26 1   
    55    27    52 1   
    56    28    53 1   
    57    30    54 1   
@<TRIPOS>SUBSTRUCTURE
     1 HOU         1 TEMP              0 ****  ****    0 ROOT
