@<TRIPOS>MOLECULE
HOV
   87    90     1     0     0
SMALL
No Charge or Current Charge


@<TRIPOS>ATOM
      1 C            9.2760    -0.7240     0.2440 c3         1 HOV      -0.097100
      2 N            2.6190     4.8950     0.0710 ns         1 HOV      -0.512900
      3 O            6.9360    -1.0490     0.6510 os         1 HOV      -0.451100
      4 C1           8.2360    -1.3930     1.1560 c3         1 HOV       0.166600
      5 N1           1.7060    -0.2600     0.4010 ns         1 HOV      -0.496900
      6 C2           5.8390    -1.5370     1.3120 c          1 HOV       0.596100
      7 N2          -1.4780    -1.3310    -1.1300 n          1 HOV      -0.396800
      8 C3           4.5340    -1.0820     0.6590 c3         1 HOV      -0.139400
      9 N3          -4.7390     0.4010    -0.4210 ns         1 HOV      -0.483900
     10 O3           0.6860     0.7200    -1.4040 o          1 HOV      -0.597100
     11 C4           3.9500     0.1690     1.3640 c3         1 HOV      -0.077400
     12 N4          -6.3600     1.4650     1.6010 nc         1 HOV      -0.354300
     13 O4          -2.1310     0.1730     0.4620 o          1 HOV      -0.614100
     14 C5           2.7090     0.7750     0.6550 c3         1 HOV       0.113700
     15 O5          -6.5940    -0.1140    -1.6450 o          1 HOV      -0.596100
     16 C6           2.0670     1.9550     1.4350 c3         1 HOV      -0.083400
     17 O6          -7.4800     1.9070     2.4010 os         1 HOV      -0.062700
     18 C7           2.9600     3.2160     1.6390 c5         1 HOV      -0.151700
     19 C8           2.2160     4.4060     2.3070 c5         1 HOV      -0.091400
     20 C9           1.5830     5.1180     1.0780 c5         1 HOV       0.099000
     21 C10          3.4130     3.8040     0.2970 c          1 HOV       0.564000
     22 C12         -0.1100    -1.4980    -0.5630 c5         1 HOV       0.028700
     23 C13          0.4730    -2.5360    -1.5700 c5         1 HOV      -0.028400
     24 C14         -0.7380    -3.4840    -1.7710 c5         1 HOV      -0.089400
     25 C15         -1.8860    -2.4660    -1.9960 c5         1 HOV       0.107000
     26 C17         -3.7100    -0.0730    -1.3760 c3         1 HOV       0.047700
     27 C18         -3.5090     0.9680    -2.5270 c3         1 HOV      -0.067700
     28 C19         -2.9530     2.3250    -2.0260 c3         1 HOV      -0.094100
     29 C20         -2.6650     0.4340    -3.7070 c3         1 HOV      -0.094100
     30 C22         -6.9080     0.9520     0.5020 cd         1 HOV       0.220500
     31 C23         -8.3160     1.0350     0.5440 cd         1 HOV      -0.200000
     32 C24         -8.6380     1.6260     1.7220 cc         1 HOV       0.171300
     33 C25         -9.9620     1.9830     2.3290 c3         1 HOV      -0.135400
     34 C26          1.6270    -3.3190    -0.9270 ca         1 HOV      -0.081300
     35 C27          2.8520    -3.4170    -1.6200 ca         1 HOV      -0.107000
     36 C28          3.9360    -4.1260    -1.0750 ca         1 HOV      -0.105500
     37 C29          3.8110    -4.7460     0.1780 ca         1 HOV      -0.107000
     38 C30          2.6000    -4.6580     0.8810 ca         1 HOV      -0.105500
     39 C31          1.5140    -3.9530     0.3330 ca         1 HOV      -0.107000
     40 H           10.2900    -0.9580     0.5900 hc         1 HOV       0.045367
     41 HA           9.1730    -1.0830    -0.7870 hc         1 HOV       0.045367
     42 HB           9.1530     0.3650     0.2520 hc         1 HOV       0.045367
     43 HN           2.8030     5.4780    -0.7380 hn         1 HOV       0.328500
     44 H1           8.3850    -2.4810     1.1460 h1         1 HOV       0.047200
     45 H1A          8.3650    -1.0320     2.1850 h1         1 HOV       0.047200
     46 HN1          1.6940    -1.0790     0.9960 hn         1 HOV       0.312500
     47 H3           4.7310    -0.8180    -0.3870 hc         1 HOV       0.079700
     48 H3A          3.8120    -1.9010     0.7230 hc         1 HOV       0.079700
     49 HN3         -4.4260     0.8010     0.4600 hn         1 HOV       0.356500
     50 H4           3.6880    -0.0920     2.3970 hc         1 HOV       0.061700
     51 H4A          4.7360     0.9310     1.4200 hc         1 HOV       0.061700
     52 H5           3.0420     1.1500    -0.3230 h1         1 HOV       0.097700
     53 H6           1.1520     2.2510     0.9080 hc         1 HOV       0.055200
     54 H6A          1.7370     1.5850     2.4130 hc         1 HOV       0.055200
     55 H7           3.8410     2.9030     2.2080 hc         1 HOV       0.082700
     56 H8           1.4730     4.0990     3.0520 hc         1 HOV       0.058200
     57 H8A          2.9260     5.0730     2.8110 hc         1 HOV       0.058200
     58 H9           1.3970     6.1830     1.2700 h1         1 HOV       0.046700
     59 H9A          0.6340     4.6490     0.7840 h1         1 HOV       0.046700
     60 H12         -0.1720    -1.8700     0.4670 h1         1 HOV       0.062700
     61 H13          0.7570    -2.0600    -2.5180 hc         1 HOV       0.080700
     62 H14         -0.6090    -4.1650    -2.6200 hc         1 HOV       0.061700
     63 H14A        -0.9420    -4.0990    -0.8880 hc         1 HOV       0.061700
     64 H15         -2.8590    -2.8880    -1.7100 h1         1 HOV       0.056700
     65 H15A        -1.9320    -2.1610    -3.0480 h1         1 HOV       0.056700
     66 H17         -4.0780    -1.0090    -1.8140 h1         1 HOV       0.080700
     67 H18         -4.5030     1.1740    -2.9440 hc         1 HOV       0.059700
     68 H19         -1.9380     2.2140    -1.6260 hc         1 HOV       0.042200
     69 H19A        -2.9140     3.0520    -2.8460 hc         1 HOV       0.042200
     70 H19B        -3.5890     2.7480    -1.2390 hc         1 HOV       0.042200
     71 H20         -3.0960    -0.4930    -4.1030 hc         1 HOV       0.042200
     72 H20A        -2.6450     1.1640    -4.5250 hc         1 HOV       0.042200
     73 H20B        -1.6290     0.2430    -3.4040 hc         1 HOV       0.042200
     74 H23         -9.0070     0.6940    -0.2180 ha         1 HOV       0.169000
     75 H25        -10.1000     1.4690     3.2880 hc         1 HOV       0.064033
     76 H25A       -10.0290     3.0630     2.5080 hc         1 HOV       0.064033
     77 H25B       -10.7870     1.6960     1.6670 hc         1 HOV       0.064033
     78 H27          2.9670    -2.9410    -2.5920 ha         1 HOV       0.114000
     79 H28          4.8740    -4.1910    -1.6230 ha         1 HOV       0.118000
     80 H29          4.6510    -5.2920     0.6020 ha         1 HOV       0.116000
     81 H30          2.5000    -5.1410     1.8500 ha         1 HOV       0.118000
     82 H31          0.5850    -3.9100     0.8940 ha         1 HOV       0.114000
     83 C11          0.7720    -0.2120    -0.6140 c          1 HOV       0.612100
     84 O1           5.8890    -2.2460     2.3080 o          1 HOV      -0.499000
     85 O2           4.3990     3.5370    -0.3690 o          1 HOV      -0.558000
     86 C16         -2.3940    -0.4000    -0.5920 c          1 HOV       0.608100
     87 C21         -6.1050     0.3640    -0.6270 c          1 HOV       0.527600
@<TRIPOS>BOND
     1     1     4 1   
     2     1    40 1   
     3     1    41 1   
     4     1    42 1   
     5     2    20 1   
     6     2    21 1   
     7     2    43 1   
     8     3     4 1   
     9     3     6 1   
    10     4    44 1   
    11     4    45 1   
    12     5    14 1   
    13     5    46 1   
    14     5    83 1   
    15     6     8 1   
    16     6    84 2   
    17     7    22 1   
    18     7    25 1   
    19     7    86 1   
    20     8    11 1   
    21     8    47 1   
    22     8    48 1   
    23     9    26 1   
    24     9    49 1   
    25     9    87 1   
    26    10    83 2   
    27    11    14 1   
    28    11    50 1   
    29    11    51 1   
    30    12    17 1   
    31    12    30 2   
    32    13    86 2   
    33    14    16 1   
    34    14    52 1   
    35    15    87 2   
    36    16    18 1   
    37    16    53 1   
    38    16    54 1   
    39    17    32 1   
    40    18    19 1   
    41    18    21 1   
    42    18    55 1   
    43    19    20 1   
    44    19    56 1   
    45    19    57 1   
    46    20    58 1   
    47    20    59 1   
    48    21    85 2   
    49    22    23 1   
    50    22    60 1   
    51    22    83 1   
    52    23    24 1   
    53    23    34 1   
    54    23    61 1   
    55    24    25 1   
    56    24    62 1   
    57    24    63 1   
    58    25    64 1   
    59    25    65 1   
    60    26    27 1   
    61    26    66 1   
    62    26    86 1   
    63    27    28 1   
    64    27    29 1   
    65    27    67 1   
    66    28    68 1   
    67    28    69 1   
    68    28    70 1   
    69    29    71 1   
    70    29    72 1   
    71    29    73 1   
    72    30    31 1   
    73    30    87 1   
    74    31    32 2   
    75    31    74 1   
    76    32    33 1   
    77    33    75 1   
    78    33    76 1   
    79    33    77 1   
    80    34    35 ar  
    81    34    39 ar  
    82    35    36 ar  
    83    35    78 1   
    84    36    37 ar  
    85    36    79 1   
    86    37    38 ar  
    87    37    80 1   
    88    38    39 ar  
    89    38    81 1   
    90    39    82 1   
@<TRIPOS>SUBSTRUCTURE
     1 HOV         1 TEMP              0 ****  ****    0 ROOT
