@<TRIPOS>MOLECULE
HOV
   87    90     1     0     0
SMALL
bcc


@<TRIPOS>ATOM
      1 C            8.3160    -2.9190    -0.3700 c3         1 HOV      -0.097100
      2 N            2.2070     5.2630     0.3140 ns         1 HOV      -0.579900
      3 O            6.4660    -1.6020     0.3330 os         1 HOV      -0.427900
      4 C1           7.6410    -2.2690     0.8140 c3         1 HOV       0.143400
      5 N1           1.5810     0.0560     0.5160 ns         1 HOV      -0.563900
      6 C2           5.6910    -0.9820     1.2110 c          1 HOV       0.645100
      7 N2          -1.3120    -1.2600    -1.1350 n          1 HOV      -0.463800
      8 C3           4.4480    -0.4390     0.5640 c3         1 HOV      -0.139400
      9 N3          -4.4210     0.3430    -0.4990 ns         1 HOV      -0.550900
     10 O3           0.7940     0.6250    -1.5310 o          1 HOV      -0.597100
     11 C4           3.7740     0.6610     1.3710 c3         1 HOV      -0.077400
     12 N4          -6.1240     1.3040     1.4320 nc         1 HOV      -0.354300
     13 O4          -1.8400     0.4060     0.2650 o          1 HOV      -0.614100
     14 C5           2.4980     1.1640     0.7010 c3         1 HOV       0.113700
     15 O5          -6.2280    -0.3910    -1.6600 o          1 HOV      -0.596100
     16 C6           1.7960     2.2650     1.5030 c3         1 HOV      -0.083400
     17 O6          -7.1840     1.6190     2.2080 os         1 HOV      -0.107100
     18 C7           2.6180     3.5280     1.7880 c5         1 HOV      -0.151700
     19 C8           1.7840     4.6010     2.4940 c5         1 HOV      -0.091400
     20 C9           1.2080     5.4370     1.3470 c5         1 HOV       0.099000
     21 C10          3.0250     4.2130     0.4910 c          1 HOV       0.706500
     22 C12         -0.0050    -1.4050    -0.5300 c5         1 HOV       0.028700
     23 C13          0.6650    -2.4750    -1.4090 c5         1 HOV      -0.028400
     24 C14         -0.5230    -3.3680    -1.7680 c5         1 HOV      -0.089400
     25 C15         -1.6240    -2.3560    -2.0560 c5         1 HOV       0.107000
     26 C17         -3.4180    -0.0340    -1.4680 c3         1 HOV       0.047700
     27 C18         -3.2310     1.0680    -2.5440 c3         1 HOV      -0.067700
     28 C19         -2.7450     2.3940    -1.9700 c3         1 HOV      -0.094100
     29 C20         -2.3330     0.6120    -3.6870 c3         1 HOV      -0.094100
     30 C22         -6.6050     0.6620     0.4070 cd         1 HOV       0.285800
     31 C23         -8.0110     0.5420     0.4860 cd         1 HOV      -0.348600
     32 C24         -8.3160     1.1660     1.6500 cc         1 HOV       0.281000
     33 C25         -9.5860     1.4260     2.3610 c3         1 HOV      -0.135400
     34 C26          1.8470    -3.1510    -0.7780 ca         1 HOV      -0.081300
     35 C27          3.0530    -3.2220    -1.4700 ca         1 HOV      -0.125000
     36 C28          4.1690    -3.8230    -0.9030 ca         1 HOV      -0.123500
     37 C29          4.0950    -4.3630     0.3730 ca         1 HOV      -0.125000
     38 C30          2.8930    -4.3080     1.0690 ca         1 HOV      -0.123500
     39 C31          1.7790    -3.7120     0.4970 ca         1 HOV      -0.125000
     40 H            9.2140    -3.4360    -0.0340 hc         1 HOV       0.045367
     41 HA           7.6670    -3.6540    -0.8460 hc         1 HOV       0.045367
     42 HB           8.6140    -2.1830    -1.1170 hc         1 HOV       0.045367
     43 HN           2.2080     5.8030    -0.5370 hn         1 HOV       0.328500
     44 H1           7.3630    -3.0170     1.5600 h1         1 HOV       0.047200
     45 H1A          8.3060    -1.5490     1.2960 h1         1 HOV       0.047200
     46 HN1          1.4490    -0.5650     1.3000 hn         1 HOV       0.312500
     47 H3           4.6790    -0.0930    -0.4460 hc         1 HOV       0.079700
     48 H3A          3.7740    -1.2920     0.4320 hc         1 HOV       0.079700
     49 HN3         -4.1060     0.8140     0.3380 hn         1 HOV       0.356500
     50 H4           3.5420     0.3070     2.3800 hc         1 HOV       0.061700
     51 H4A          4.4630     1.4990     1.4800 hc         1 HOV       0.061700
     52 H5           2.7480     1.5390    -0.2920 h1         1 HOV       0.097700
     53 H6           0.8750     2.5350     0.9750 hc         1 HOV       0.055200
     54 H6A          1.4850     1.8470     2.4650 hc         1 HOV       0.055200
     55 H7           3.5090     3.2650     2.3620 hc         1 HOV       0.082700
     56 H8           1.0070     4.1840     3.1330 hc         1 HOV       0.058200
     57 H8A          2.4290     5.2250     3.1140 hc         1 HOV       0.058200
     58 H9           1.0960     6.4870     1.6130 h1         1 HOV       0.046700
     59 H9A          0.2310     5.0700     1.0200 h1         1 HOV       0.046700
     60 H12         -0.1030    -1.7640     0.5020 h1         1 HOV       0.062700
     61 H13          0.9960    -1.9830    -2.3300 hc         1 HOV       0.080700
     62 H14         -0.3210    -4.0100    -2.6240 hc         1 HOV       0.061700
     63 H14A        -0.7930    -4.0050    -0.9220 hc         1 HOV       0.061700
     64 H15         -2.6170    -2.7610    -1.8670 h1         1 HOV       0.056700
     65 H15A        -1.5790    -2.0210    -3.0930 h1         1 HOV       0.056700
     66 H17         -3.7600    -0.9390    -1.9740 h1         1 HOV       0.080700
     67 H18         -4.2340     1.2250    -2.9550 hc         1 HOV       0.059700
     68 H19         -1.7130     2.3320    -1.6250 hc         1 HOV       0.042200
     69 H19A        -2.7890     3.1630    -2.7430 hc         1 HOV       0.042200
     70 H19B        -3.3610     2.7370    -1.1380 hc         1 HOV       0.042200
     71 H20         -2.7160    -0.2890    -4.1680 hc         1 HOV       0.042200
     72 H20A        -2.2810     1.3880    -4.4510 hc         1 HOV       0.042200
     73 H20B        -1.3140     0.4200    -3.3450 hc         1 HOV       0.042200
     74 H23         -8.6820     0.0690    -0.2080 ha         1 HOV       0.187000
     75 H25         -9.5610     1.0270     3.3750 hc         1 HOV       0.064033
     76 H25A        -9.7880     2.4950     2.4280 hc         1 HOV       0.064033
     77 H25B       -10.4090     0.9560     1.8280 hc         1 HOV       0.064033
     78 H27          3.1250    -2.7880    -2.4600 ha         1 HOV       0.132000
     79 H28          5.0990    -3.8570    -1.4560 ha         1 HOV       0.136000
     80 H29          4.9640    -4.8230     0.8240 ha         1 HOV       0.134000
     81 H30          2.8220    -4.7320     2.0630 ha         1 HOV       0.136000
     82 H31          0.8520    -3.6840     1.0580 ha         1 HOV       0.132000
     83 C11          0.8020    -0.1140    -0.5600 c          1 HOV       0.679100
     84 O1           5.9510    -0.9020     2.3880 o          1 HOV      -0.548000
     85 O2           3.9130     3.8600    -0.2700 o          1 HOV      -0.633500
     86 C16         -2.1290    -0.2910    -0.7000 c          1 HOV       0.675100
     87 C21         -5.7300     0.1540    -0.6870 c          1 HOV       0.594600
@<TRIPOS>BOND
     1     1     4 1   
     2     1    40 1   
     3     1    41 1   
     4     1    42 1   
     5     2    20 1   
     6     2    21 1   
     7     2    43 1   
     8     3     4 1   
     9     3     6 1   
    10     4    44 1   
    11     4    45 1   
    12     5    14 1   
    13     5    46 1   
    14     5    83 1   
    15     6     8 1   
    16     6    84 2   
    17     7    22 1   
    18     7    25 1   
    19     7    86 1   
    20     8    11 1   
    21     8    47 1   
    22     8    48 1   
    23     9    26 1   
    24     9    49 1   
    25     9    87 1   
    26    10    83 2   
    27    11    14 1   
    28    11    50 1   
    29    11    51 1   
    30    12    17 1   
    31    12    30 2   
    32    13    86 2   
    33    14    16 1   
    34    14    52 1   
    35    15    87 2   
    36    16    18 1   
    37    16    53 1   
    38    16    54 1   
    39    17    32 1   
    40    18    19 1   
    41    18    21 1   
    42    18    55 1   
    43    19    20 1   
    44    19    56 1   
    45    19    57 1   
    46    20    58 1   
    47    20    59 1   
    48    21    85 2   
    49    22    23 1   
    50    22    60 1   
    51    22    83 1   
    52    23    24 1   
    53    23    34 1   
    54    23    61 1   
    55    24    25 1   
    56    24    62 1   
    57    24    63 1   
    58    25    64 1   
    59    25    65 1   
    60    26    27 1   
    61    26    66 1   
    62    26    86 1   
    63    27    28 1   
    64    27    29 1   
    65    27    67 1   
    66    28    68 1   
    67    28    69 1   
    68    28    70 1   
    69    29    71 1   
    70    29    72 1   
    71    29    73 1   
    72    30    31 1   
    73    30    87 1   
    74    31    32 2   
    75    31    74 1   
    76    32    33 1   
    77    33    75 1   
    78    33    76 1   
    79    33    77 1   
    80    34    35 ar  
    81    34    39 ar  
    82    35    36 ar  
    83    35    78 1   
    84    36    37 ar  
    85    36    79 1   
    86    37    38 ar  
    87    37    80 1   
    88    38    39 ar  
    89    38    81 1   
    90    39    82 1   
@<TRIPOS>SUBSTRUCTURE
     1 HOV         1 TEMP              0 ****  ****    0 ROOT
