@<TRIPOS>MOLECULE
HOW
   10    10     1     0     0
SMALL
No Charge or Current Charge


@<TRIPOS>ATOM
      1 C2           0.7050     0.0220     0.0610 cc         1 HOW       0.491900
      2 C3          -0.0640    -1.1350     0.0250 cc         1 HOW      -0.283000
      3 N1           2.0450    -0.0040     0.1450 nv         1 HOW      -1.023900
      4 C4          -1.3400    -0.6810    -0.0620 cd         1 HOW       0.192900
      5 O5          -1.3340     0.6940    -0.0780 os         1 HOW      -0.071700
      6 N6           0.0370     1.1450     0.0040 nd         1 HOW      -0.438300
      7 H9           0.2870    -2.1590     0.0610 ha         1 HOW       0.153000
      8 H8           2.5200    -0.8750    -0.0730 hn         1 HOW       0.463000
      9 H7           2.5450     0.8560    -0.0590 hn         1 HOW       0.463000
     10 H10         -2.2910    -1.1940    -0.1160 h4         1 HOW       0.053100
@<TRIPOS>BOND
     1     1     2 1   
     2     1     3 1   
     3     1     6 2   
     4     2     4 2   
     5     2     7 1   
     6     3     8 1   
     7     3     9 1   
     8     4     5 1   
     9     4    10 1   
    10     5     6 1   
@<TRIPOS>SUBSTRUCTURE
     1 HOW         1 TEMP              0 ****  ****    0 ROOT
