@<TRIPOS>MOLECULE
HOW
   10    10     1     0     0
SMALL
abcg2


@<TRIPOS>ATOM
      1 C2           0.7320    -0.0100     0.0610 cc         1 HOW       0.491900
      2 C3          -0.0930    -1.1750     0.0330 cc         1 HOW      -0.283000
      3 N1           2.0870     0.0210     0.2110 nv         1 HOW      -1.023900
      4 C4          -1.3370    -0.6660    -0.0610 cd         1 HOW       0.192900
      5 O5          -1.2980     0.6620    -0.0870 os         1 HOW      -0.071700
      6 N6           0.0120     1.0800    -0.0160 nd         1 HOW      -0.438300
      7 H9           0.2090    -2.2080     0.0770 ha         1 HOW       0.153000
      8 H8           2.5760    -0.7890    -0.1340 hn         1 HOW       0.463000
      9 H7           2.5350     0.8820    -0.0610 hn         1 HOW       0.463000
     10 H10         -2.3110    -1.1270    -0.1150 h4         1 HOW       0.053100
@<TRIPOS>BOND
     1     1     2 1   
     2     1     3 1   
     3     1     6 2   
     4     2     4 2   
     5     2     7 1   
     6     3     8 1   
     7     3     9 1   
     8     4     5 1   
     9     4    10 1   
    10     5     6 1   
@<TRIPOS>SUBSTRUCTURE
     1 HOW         1 TEMP              0 ****  ****    0 ROOT
