@<TRIPOS>MOLECULE
HOX
   24    24     1     0     0
SMALL
abcg2


@<TRIPOS>ATOM
      1 O            3.0180    55.5000    83.6470 o          1 HOX      -0.725500
      2 C            1.9170    56.0420    83.4210 c          1 HOX       0.717000
      3 N            1.7140    55.1690    81.1160 n8         1 HOX      -0.972200
      4 OXT          1.4720    57.0780    83.9540 o          1 HOX      -0.725500
      5 CA           1.0040    55.3460    82.3800 c3         1 HOX       0.021500
      6 CB           0.5790    53.9620    82.8880 c3         1 HOX      -0.011100
      7 CG          -0.2710    54.0130    84.1250 ca         1 HOX      -0.071300
      8 CZ          -1.8840    54.1560    86.4550 ca         1 HOX       0.252000
      9 NZ          -2.6760    54.1620    87.5900 nv         1 HOX      -1.077000
     10 CD1         -1.6550    54.1580    84.0460 ca         1 HOX      -0.064000
     11 CD2          0.2850    53.9460    85.4000 ca         1 HOX      -0.064000
     12 CE1         -2.4510    54.2290    85.1780 ca         1 HOX      -0.175500
     13 CE2         -0.4950    54.0160    86.5440 ca         1 HOX      -0.175500
     14 HN           1.0640    54.8140    80.4240 hn         1 HOX       0.362000
     15 HNA          2.0130    56.0710    80.7630 hn         1 HOX       0.362000
     16 HA           0.0940    55.9530    82.2660 h1         1 HOX       0.004700
     17 HB           0.0240    53.4550    82.0910 hc         1 HOX       0.035700
     18 HBA          1.4800    53.3720    83.0680 hc         1 HOX       0.035700
     19 HNZ         -2.2130    54.4650    88.4320 hn         1 HOX       0.428000
     20 HNZA        -3.5710    54.6130    87.4850 hn         1 HOX       0.428000
     21 HD1         -2.1270    54.2150    83.0710 ha         1 HOX       0.115000
     22 HD2          1.3590    53.8430    85.5060 ha         1 HOX       0.115000
     23 HE1         -3.5250    54.3360    85.0750 ha         1 HOX       0.093500
     24 HE2         -0.0240    53.9580    87.5190 ha         1 HOX       0.093500
@<TRIPOS>BOND
     1     1     2 1   
     2     2     4 1   
     3     2     5 1   
     4     3     5 1   
     5     3    14 1   
     6     3    15 1   
     7     5     6 1   
     8     5    16 1   
     9     6     7 1   
    10     6    17 1   
    11     6    18 1   
    12     7    10 ar  
    13     7    11 ar  
    14     8     9 1   
    15     8    12 ar  
    16     8    13 ar  
    17     9    19 1   
    18     9    20 1   
    19    10    12 ar  
    20    10    21 1   
    21    11    13 ar  
    22    11    22 1   
    23    12    23 1   
    24    13    24 1   
@<TRIPOS>SUBSTRUCTURE
     1 HOX         1 TEMP              0 ****  ****    0 ROOT
