@<TRIPOS>MOLECULE
HOX
   24    24     1     0     0
SMALL
No Charge or Current Charge


@<TRIPOS>ATOM
      1 O            2.8800    55.7210    83.9080 o          1 HOX      -0.725500
      2 C            1.8720    56.1910    83.3930 c          1 HOX       0.717000
      3 N            1.6300    55.1590    80.9840 n8         1 HOX      -0.972200
      4 OXT          1.5060    57.3450    83.5840 o          1 HOX      -0.725500
      5 CA           1.0420    55.3080    82.3660 c3         1 HOX       0.021500
      6 CB           0.6960    53.9150    82.9590 c3         1 HOX      -0.011100
      7 CG          -0.2060    54.0060    84.1860 ca         1 HOX      -0.071300
      8 CZ          -1.8800    54.1720    86.4520 ca         1 HOX       0.252000
      9 NZ          -2.6910    54.2530    87.5500 nv         1 HOX      -1.077000
     10 CD1         -1.5710    54.3210    84.0410 ca         1 HOX      -0.064000
     11 CD2          0.3150    53.7730    85.4750 ca         1 HOX      -0.064000
     12 CE1         -2.4040    54.4030    85.1720 ca         1 HOX      -0.175500
     13 CE2         -0.5220    53.8570    86.6030 ca         1 HOX      -0.175500
     14 HN           0.9560    54.6780    80.3770 hn         1 HOX       0.362000
     15 HNA          1.7280    56.0890    80.5580 hn         1 HOX       0.362000
     16 HA           0.0880    55.8300    82.2130 h1         1 HOX       0.004700
     17 HB           0.1890    53.3140    82.1930 hc         1 HOX       0.035700
     18 HBA          1.6210    53.3760    83.1970 hc         1 HOX       0.035700
     19 HNZ         -2.2890    54.2060    88.4850 hn         1 HOX       0.428000
     20 HNZA        -3.6440    54.5990    87.4570 hn         1 HOX       0.428000
     21 HD1         -1.9870    54.5010    83.0520 ha         1 HOX       0.115000
     22 HD2          1.3670    53.5310    85.6030 ha         1 HOX       0.115000
     23 HE1         -3.4560    54.6470    85.0460 ha         1 HOX       0.093500
     24 HE2         -0.1080    53.6760    87.5910 ha         1 HOX       0.093500
@<TRIPOS>BOND
     1     1     2 1   
     2     2     4 1   
     3     2     5 1   
     4     3     5 1   
     5     3    14 1   
     6     3    15 1   
     7     5     6 1   
     8     5    16 1   
     9     6     7 1   
    10     6    17 1   
    11     6    18 1   
    12     7    10 ar  
    13     7    11 ar  
    14     8     9 1   
    15     8    12 ar  
    16     8    13 ar  
    17     9    19 1   
    18     9    20 1   
    19    10    12 ar  
    20    10    21 1   
    21    11    13 ar  
    22    11    22 1   
    23    12    23 1   
    24    13    24 1   
@<TRIPOS>SUBSTRUCTURE
     1 HOX         1 TEMP              0 ****  ****    0 ROOT
