@<TRIPOS>MOLECULE
HOZ
   20    19     1     0     0
SMALL
bcc


@<TRIPOS>ATOM
      1 N            1.6940    -1.3350     0.6650 n8         1 HOZ      -0.907800
      2 CA           1.4250    -0.1850    -0.1950 c3         1 HOZ       0.144500
      3 C            2.5400     0.8380    -0.0080 c3         1 HOZ       0.154800
      4 N1           3.8330     0.2760    -0.3620 n8         1 HOZ      -0.886800
      5 CB           0.0550     0.4650     0.0180 c3         1 HOZ      -0.088400
      6 CG          -1.1100    -0.4780    -0.2350 c3         1 HOZ      -0.207400
      7 CD          -2.5120     0.1370    -0.0830 c          1 HOZ       0.927600
      8 OE1         -2.6160     1.1970     0.5650 o          1 HOZ      -0.845300
      9 OE2         -3.4510    -0.5000    -0.6070 o          1 HOZ      -0.845300
     10 HN1          1.4890    -1.0880     1.6280 hn         1 HOZ       0.335300
     11 HN2          1.0630    -2.0930     0.4360 hn         1 HOZ       0.335300
     12 HA           1.4810    -0.5450    -1.2300 h1         1 HOZ       0.060700
     13 H1           2.4910     1.2140     1.0270 h1         1 HOZ       0.021700
     14 H2           2.3390     1.6960    -0.6550 h1         1 HOZ       0.021700
     15 HN11         4.5660     0.9280    -0.1130 hn         1 HOZ       0.331800
     16 HN12         3.9820    -0.5470     0.2100 hn         1 HOZ       0.331800
     17 HB1          0.0020     0.8610     1.0370 hc         1 HOZ       0.044200
     18 HB2         -0.0250     1.3290    -0.6490 hc         1 HOZ       0.044200
     19 HG1         -1.0230    -0.9160    -1.2360 hc         1 HOZ       0.014700
     20 HG2         -1.0570    -1.3290     0.4550 hc         1 HOZ       0.014700
@<TRIPOS>BOND
     1     1     2 1   
     2     1    10 1   
     3     1    11 1   
     4     2     3 1   
     5     2     5 1   
     6     2    12 1   
     7     3     4 1   
     8     3    13 1   
     9     3    14 1   
    10     4    15 1   
    11     4    16 1   
    12     5     6 1   
    13     5    17 1   
    14     5    18 1   
    15     6     7 1   
    16     6    19 1   
    17     6    20 1   
    18     7     8 1   
    19     7     9 1   
@<TRIPOS>SUBSTRUCTURE
     1 HOZ         1 TEMP              0 ****  ****    0 ROOT
