@<TRIPOS>MOLECULE
HOZ
   20    19     1     0     0
SMALL
No Charge or Current Charge


@<TRIPOS>ATOM
      1 N            1.6680    -1.2760     0.8510 n8         1 HOZ      -1.018200
      2 CA           1.4320    -0.2410    -0.1910 c3         1 HOZ       0.144500
      3 C            2.5520     0.8500    -0.1720 c3         1 HOZ       0.154800
      4 N1           3.8850     0.2960    -0.5020 n8         1 HOZ      -0.997200
      5 CB           0.0230     0.3820    -0.0120 c3         1 HOZ      -0.088400
      6 CG          -1.1570    -0.6220    -0.1470 c3         1 HOZ      -0.207400
      7 CD          -2.5020     0.1260    -0.0950 c          1 HOZ       0.717000
      8 OE1         -3.0200     0.3080     0.9970 o          1 HOZ      -0.740000
      9 OE2         -2.9680     0.5500    -1.1420 o          1 HOZ      -0.740000
     10 HN1          1.6360    -0.8250     1.7720 hn         1 HOZ       0.390500
     11 HN2          0.8540    -1.8990     0.8660 hn         1 HOZ       0.390500
     12 HA           1.4560    -0.7340    -1.1740 h1         1 HOZ       0.060700
     13 H1           2.6000     1.3010     0.8290 h1         1 HOZ       0.021700
     14 H2           2.3190     1.6440    -0.8940 h1         1 HOZ       0.021700
     15 HN11         4.6070     0.9580    -0.1930 hn         1 HOZ       0.387000
     16 HN12         4.0240    -0.5240     0.1020 hn         1 HOZ       0.387000
     17 HB1         -0.0360     0.8840     0.9630 hc         1 HOZ       0.044200
     18 HB2         -0.1030     1.1660    -0.7690 hc         1 HOZ       0.044200
     19 HG1         -1.0290    -1.1050    -1.1240 hc         1 HOZ       0.014700
     20 HG2         -1.0780    -1.3130     0.7010 hc         1 HOZ       0.014700
@<TRIPOS>BOND
     1     1     2 1   
     2     1    10 1   
     3     1    11 1   
     4     2     3 1   
     5     2     5 1   
     6     2    12 1   
     7     3     4 1   
     8     3    13 1   
     9     3    14 1   
    10     4    15 1   
    11     4    16 1   
    12     5     6 1   
    13     5    17 1   
    14     5    18 1   
    15     6     7 1   
    16     6    19 1   
    17     6    20 1   
    18     7     8 1   
    19     7     9 1   
@<TRIPOS>SUBSTRUCTURE
     1 HOZ         1 TEMP              0 ****  ****    0 ROOT
