@<TRIPOS>MOLECULE
HP0
   54    56     1     0     0
SMALL
No Charge or Current Charge


@<TRIPOS>ATOM
      1 C1           0.8400     1.2700     1.1880 c3         1 HP0       0.091100
      2 O1           0.2940     0.2990     2.0950 oh         1 HP0      -0.590800
      3 C2           2.0230     0.6670     0.3490 c3         1 HP0       0.145500
      4 N            2.6330     1.6840    -0.5450 n8         1 HP0      -0.902800
      5 C3           3.1250     0.0150     1.2320 c3         1 HP0      -0.026100
      6 C4           4.2370    -0.6670     0.4340 ca         1 HP0      -0.045300
      7 C5           5.5490    -0.1520     0.4460 ca         1 HP0      -0.118000
      8 C6           3.9630    -1.8360    -0.3050 ca         1 HP0      -0.118000
      9 C7           6.5710    -0.7920    -0.2770 ca         1 HP0      -0.137500
     10 C8           4.9840    -2.4760    -1.0280 ca         1 HP0      -0.137500
     11 C9           6.2890    -1.9540    -1.0150 ca         1 HP0      -0.146000
     12 N2          -1.5310     0.9040     0.2120 n3         1 HP0      -0.710600
     13 C10         -0.3510     1.8210     0.3380 c3         1 HP0       0.179800
     14 C11         -2.7710     1.6290    -0.3080 c6         1 HP0       0.052500
     15 C           -3.2300     2.9860     0.3950 c          1 HP0       0.923600
     16 O           -3.2240     3.0420     1.6230 o          1 HP0      -0.833300
     17 C13         -3.9950     0.6710    -0.3670 c6         1 HP0      -0.058400
     18 C14         -3.6980    -0.6040    -1.2020 c6         1 HP0      -0.059700
     19 C15         -4.9000    -1.5930    -1.2380 c6         1 HP0      -0.063400
     20 C16         -5.1320    -2.3030     0.1210 c6         1 HP0      -0.071400
     21 C17         -3.8430    -3.0040     0.6150 c6         1 HP0      -0.070400
     22 C18         -2.6550    -2.0140     0.6910 c6         1 HP0      -0.068400
     23 C19         -2.4160    -1.3120    -0.6800 c6         1 HP0      -0.044700
     24 C20         -1.2340    -0.3060    -0.6160 c6         1 HP0       0.190800
     25 OXT         -3.1550     4.0160    -0.2720 o          1 HP0      -0.833300
     26 H1           1.2520     2.1160     1.7560 h1         1 HP0       0.125700
     27 H31         -0.6150     0.1570     1.7370 ho         1 HP0       0.374000
     28 H3           1.6180    -0.1170    -0.3030 h1         1 HP0       0.032700
     29 H            1.9140     2.0870    -1.1520 hn         1 HP0       0.358300
     30 H5           3.5440     0.7750     1.9020 hc         1 HP0       0.054700
     31 H6           2.6660    -0.7360     1.8860 hc         1 HP0       0.054700
     32 H7           5.7770     0.7480     1.0150 ha         1 HP0       0.130000
     33 H8           2.9560    -2.2490    -0.3170 ha         1 HP0       0.130000
     34 H9           7.5810    -0.3870    -0.2650 ha         1 HP0       0.118000
     35 H10          4.7650    -3.3770    -1.5980 ha         1 HP0       0.118000
     36 H11          7.0800    -2.4500    -1.5750 ha         1 HP0       0.115000
     37 H12         -0.6660     2.7490     0.8320 h1         1 HP0       0.023700
     38 H13          0.0000     2.1170    -0.6590 h1         1 HP0       0.023700
     39 H14         -2.5590     1.9140    -1.3500 h1         1 HP0       0.006700
     40 H15         -4.2950     0.4120     0.6560 hc         1 HP0       0.051200
     41 H16         -4.8500     1.2020    -0.8080 hc         1 HP0       0.051200
     42 H17         -3.5080    -0.2810    -2.2350 hc         1 HP0       0.030700
     43 H18         -5.8140    -1.0640    -1.5420 hc         1 HP0       0.024700
     44 H19         -4.7180    -2.3520    -2.0110 hc         1 HP0       0.024700
     45 H20         -5.4770    -1.5820     0.8740 hc         1 HP0       0.033200
     46 H21         -5.9370    -3.0440     0.0170 hc         1 HP0       0.033200
     47 H22         -4.0180    -3.4520     1.6030 hc         1 HP0       0.021200
     48 H23         -3.5910    -3.8320    -0.0620 hc         1 HP0       0.021200
     49 H24         -2.8420    -1.2720     1.4790 hc         1 HP0       0.053200
     50 H25         -1.7480    -2.5560     0.9930 hc         1 HP0       0.053200
     51 H26         -2.1410    -2.0910    -1.4050 hc         1 HP0       0.016700
     52 H27         -0.9780     0.0030    -1.6410 h1         1 HP0       0.008200
     53 H28         -0.3650    -0.8450    -0.2200 h1         1 HP0       0.008200
     54 H2           2.9770     2.4730     0.0110 hn         1 HP0       0.358300
@<TRIPOS>BOND
     1     1     2 1   
     2     1     3 1   
     3     1    13 1   
     4     1    26 1   
     5     2    27 1   
     6     3     4 1   
     7     3     5 1   
     8     3    28 1   
     9     4    29 1   
    10     4    54 1   
    11     5     6 1   
    12     5    30 1   
    13     5    31 1   
    14     6     7 ar  
    15     6     8 ar  
    16     7     9 ar  
    17     7    32 1   
    18     8    10 ar  
    19     8    33 1   
    20     9    11 ar  
    21     9    34 1   
    22    10    11 ar  
    23    10    35 1   
    24    11    36 1   
    25    12    13 1   
    26    12    14 1   
    27    12    24 1   
    28    13    37 1   
    29    13    38 1   
    30    14    15 1   
    31    14    17 1   
    32    14    39 1   
    33    15    16 1   
    34    15    25 1   
    35    17    18 1   
    36    17    40 1   
    37    17    41 1   
    38    18    19 1   
    39    18    23 1   
    40    18    42 1   
    41    19    20 1   
    42    19    43 1   
    43    19    44 1   
    44    20    21 1   
    45    20    45 1   
    46    20    46 1   
    47    21    22 1   
    48    21    47 1   
    49    21    48 1   
    50    22    23 1   
    51    22    49 1   
    52    22    50 1   
    53    23    24 1   
    54    23    51 1   
    55    24    52 1   
    56    24    53 1   
@<TRIPOS>SUBSTRUCTURE
     1 HP0         1 TEMP              0 ****  ****    0 ROOT
