@<TRIPOS>MOLECULE
HP0
   54    56     1     0     0
SMALL
bcc


@<TRIPOS>ATOM
      1 C1           0.7870    -0.4220    -0.0170 c3         1 HP0       0.091100
      2 O1           0.6410    -1.8310     0.0310 oh         1 HP0      -0.590800
      3 C2           2.2550    -0.0060    -0.2280 c3         1 HP0       0.145500
      4 N            2.4530     1.4360    -0.1980 n8         1 HP0      -0.902800
      5 C3           3.1580    -0.6580     0.8310 c3         1 HP0      -0.026100
      6 C4           4.6170    -0.4440     0.5540 ca         1 HP0      -0.045300
      7 C5           5.3140     0.6260     1.1110 ca         1 HP0      -0.118000
      8 C6           5.3050    -1.3070    -0.2970 ca         1 HP0      -0.118000
      9 C7           6.6600     0.8240     0.8340 ca         1 HP0      -0.137500
     10 C8           6.6490    -1.1110    -0.5850 ca         1 HP0      -0.137500
     11 C9           7.3330    -0.0420    -0.0190 ca         1 HP0      -0.146000
     12 N2          -1.5500     0.0390    -0.6540 n3         1 HP0      -0.710600
     13 C10         -0.1600     0.1930    -1.0440 c3         1 HP0       0.179800
     14 C11         -2.3210     1.2670    -0.6340 c6         1 HP0       0.052500
     15 C           -1.6690     2.4250     0.1550 c          1 HP0       0.923600
     16 O           -0.9310     2.1460     1.1200 o          1 HP0      -0.833300
     17 C13         -3.6850     0.9970     0.0090 c6         1 HP0      -0.058400
     18 C14         -4.4470    -0.1320    -0.6790 c6         1 HP0      -0.059700
     19 C15         -5.7770    -0.4540     0.0060 c6         1 HP0      -0.063400
     20 C16         -5.5990    -1.1720     1.3400 c6         1 HP0      -0.071400
     21 C17         -4.7480    -2.4260     1.1710 c6         1 HP0      -0.070400
     22 C18         -3.3990    -2.0950     0.5420 c6         1 HP0      -0.068400
     23 C19         -3.5630    -1.3780    -0.7970 c6         1 HP0      -0.044700
     24 C20         -2.2230    -0.9970    -1.4100 c6         1 HP0       0.190800
     25 OXT         -1.9950     3.5710    -0.2180 o          1 HP0      -0.833300
     26 H1           0.4670    -0.0590     0.9630 h1         1 HP0       0.125700
     27 H31          0.8810    -2.1850    -0.8320 ho         1 HP0       0.374000
     28 H3           2.5810    -0.3590    -1.2150 h1         1 HP0       0.032700
     29 H            2.1260     1.8560    -1.0580 hn         1 HP0       0.358300
     30 H5           2.8970    -0.2430     1.8100 hc         1 HP0       0.054700
     31 H6           2.9500    -1.7280     0.8770 hc         1 HP0       0.054700
     32 H7           4.7960     1.3080     1.7740 ha         1 HP0       0.130000
     33 H8           4.7810    -2.1480    -0.7380 ha         1 HP0       0.130000
     34 H9           7.1850     1.6580     1.2820 ha         1 HP0       0.118000
     35 H10          7.1650    -1.7950    -1.2470 ha         1 HP0       0.118000
     36 H11          8.3820     0.1110    -0.2370 ha         1 HP0       0.115000
     37 H12          0.0820     1.2480    -1.1710 h1         1 HP0       0.023700
     38 H13          0.0350    -0.2630    -2.0290 h1         1 HP0       0.023700
     39 H14         -2.5030     1.6330    -1.6650 h1         1 HP0       0.006700
     40 H15         -3.5180     0.7670     1.0650 hc         1 HP0       0.051200
     41 H16         -4.2820     1.9120    -0.0250 hc         1 HP0       0.051200
     42 H17         -4.6710     0.2090    -1.6990 hc         1 HP0       0.030700
     43 H18         -6.3580     0.4640     0.1380 hc         1 HP0       0.024700
     44 H19         -6.3650    -1.0980    -0.6590 hc         1 HP0       0.024700
     45 H20         -5.1250    -0.5050     2.0680 hc         1 HP0       0.033200
     46 H21         -6.5770    -1.4300     1.7560 hc         1 HP0       0.033200
     47 H22         -4.6060    -2.9230     2.1350 hc         1 HP0       0.021200
     48 H23         -5.2810    -3.1370     0.5290 hc         1 HP0       0.021200
     49 H24         -2.8120    -1.4730     1.2240 hc         1 HP0       0.053200
     50 H25         -2.8200    -3.0110     0.3910 hc         1 HP0       0.053200
     51 H26         -4.0540    -2.0750    -1.4890 hc         1 HP0       0.016700
     52 H27         -2.3880    -0.6860    -2.4610 h1         1 HP0       0.008200
     53 H28         -1.5830    -1.8810    -1.4440 h1         1 HP0       0.008200
     54 H2           1.8860     1.8410     0.5390 hn         1 HP0       0.358300
@<TRIPOS>BOND
     1     1     2 1   
     2     1     3 1   
     3     1    13 1   
     4     1    26 1   
     5     2    27 1   
     6     3     4 1   
     7     3     5 1   
     8     3    28 1   
     9     4    29 1   
    10     4    54 1   
    11     5     6 1   
    12     5    30 1   
    13     5    31 1   
    14     6     7 ar  
    15     6     8 ar  
    16     7     9 ar  
    17     7    32 1   
    18     8    10 ar  
    19     8    33 1   
    20     9    11 ar  
    21     9    34 1   
    22    10    11 ar  
    23    10    35 1   
    24    11    36 1   
    25    12    13 1   
    26    12    14 1   
    27    12    24 1   
    28    13    37 1   
    29    13    38 1   
    30    14    15 1   
    31    14    17 1   
    32    14    39 1   
    33    15    16 1   
    34    15    25 1   
    35    17    18 1   
    36    17    40 1   
    37    17    41 1   
    38    18    19 1   
    39    18    23 1   
    40    18    42 1   
    41    19    20 1   
    42    19    43 1   
    43    19    44 1   
    44    20    21 1   
    45    20    45 1   
    46    20    46 1   
    47    21    22 1   
    48    21    47 1   
    49    21    48 1   
    50    22    23 1   
    51    22    49 1   
    52    22    50 1   
    53    23    24 1   
    54    23    51 1   
    55    24    52 1   
    56    24    53 1   
@<TRIPOS>SUBSTRUCTURE
     1 HP0         1 TEMP              0 ****  ****    0 ROOT
