@<TRIPOS>MOLECULE
HP1
   89    92     1     0     0
SMALL
No Charge or Current Charge


@<TRIPOS>ATOM
      1 C           11.4630    -4.0180    14.7330 cc         1 HP1      -0.056400
      2 C1          13.0030    -8.8470    10.7690 cc         1 HP1      -0.176000
      3 C2          10.5140    -4.4040    15.6400 cd         1 HP1      -0.159000
      4 C3           9.2300    -6.5320    16.1330 c3         1 HP1       0.065900
      5 C4          10.9800    -6.2030    14.2860 cd         1 HP1      -0.238600
      6 C5          10.9620    -7.5700    13.6830 c          1 HP1       0.648700
      7 C6          12.0830    -8.8290    11.8280 cc         1 HP1      -0.014400
      8 C8          11.5050   -10.0640    11.9260 cd         1 HP1      -0.177000
      9 C10         13.0110   -10.0970    10.1910 cd         1 HP1      -0.231600
     10 C11         13.8480   -10.5350     9.0340 c          1 HP1       0.645700
     11 C12         15.5770    -9.5690     7.4990 cc         1 HP1      -0.020400
     12 C13         16.3630    -8.4780     7.0990 cc         1 HP1      -0.183000
     13 C14         15.8620   -10.6330     6.6880 cd         1 HP1      -0.175000
     14 C16         17.1490    -8.8480     6.0320 cd         1 HP1      -0.229600
     15 C18         22.0970    -2.0910     5.9460 c3         1 HP1       0.105000
     16 C19         23.0440    -2.6320     4.8570 c3         1 HP1      -0.102400
     17 C20         24.1600    -1.6270     4.4950 c3         1 HP1       0.166800
     18 C21         25.7740    -3.2860     3.5810 c3         1 HP1       0.148100
     19 C22         25.9000    -0.9320     2.9040 c3         1 HP1       0.148100
     20 C23         18.1250    -7.9810     5.3120 c          1 HP1       0.641700
     21 C25         12.6660    -0.4480    14.9920 cc         1 HP1       0.333000
     22 C26         14.1170     0.7420    13.8810 cd         1 HP1       0.234900
     23 C27         13.6110     1.5770    14.8380 cc         1 HP1      -0.213000
     24 C29         19.0800    -5.6610     5.2790 c3         1 HP1       0.112000
     25 C30         18.9980    -4.3790     6.1240 c3         1 HP1      -0.178400
     26 C31         19.9260    -3.3070     5.5560 c          1 HP1       0.594100
     27 C32         11.7480    -5.1270    13.9010 cc         1 HP1       0.041100
     28 O1          10.2430    -8.4730    14.0910 o          1 HP1      -0.627100
     29 O2          13.8080   -11.6650     8.5640 o          1 HP1      -0.621100
     30 O3          18.8060    -8.3500     4.3650 o          1 HP1      -0.613100
     31 O5          19.6670    -2.6940     4.5310 o          1 HP1      -0.597100
     32 O6          12.6470    -5.0840    12.8950 oh         1 HP1      -0.548100
     33 N           10.2120    -5.7430    15.3720 na         1 HP1       0.067000
     34 N1          11.8300    -7.7200    12.6230 ns         1 HP1      -0.372100
     35 N3          12.0720   -10.8530    10.9180 na         1 HP1       0.065000
     36 N4          14.6710    -9.5350     8.5510 ns         1 HP1      -0.371100
     37 N5          16.8330   -10.1940     5.7790 na         1 HP1       0.063000
     38 N6          21.0550    -3.0580     6.3020 ns         1 HP1      -0.507900
     39 N7          25.0170    -2.0320     3.3510 n3         1 HP1      -0.710600
     40 N8          12.0420    -2.7470    14.6540 ns         1 HP1      -0.357100
     41 N9          12.6930     0.8290    15.5440 na         1 HP1      -0.122500
     42 N10         13.5360    -0.5040    13.9750 nd         1 HP1      -0.673000
     43 N11         18.2010    -6.7030     5.8090 ns         1 HP1      -0.507900
     44 H1          13.5990    -7.9860    10.4820 ha         1 HP1       0.128000
     45 H2          10.0320    -3.8560    16.4410 h4         1 HP1       0.178000
     46 H3           8.7860    -5.9150    16.9220 h1         1 HP1       0.064033
     47 H4           8.4380    -6.8800    15.4590 h1         1 HP1       0.064033
     48 H5           9.7280    -7.3960    16.5890 h1         1 HP1       0.064033
     49 H6          10.7550   -10.4440    12.6090 h4         1 HP1       0.177000
     50 H7          10.9630   -12.5870    11.3940 h1         1 HP1       0.061367
     51 H8          11.3270   -12.3700     9.6570 h1         1 HP1       0.061367
     52 H9          12.6170   -12.8850    10.7870 h1         1 HP1       0.061367
     53 H10         16.3300    -7.5050     7.5810 ha         1 HP1       0.127000
     54 H11         15.4690   -11.6420     6.6770 h4         1 HP1       0.178000
     55 H12         16.9850   -12.0400     4.7620 h1         1 HP1       0.061367
     56 H13         17.2130   -10.5890     3.7440 h1         1 HP1       0.061367
     57 H14         18.5040   -11.1050     4.8730 h1         1 HP1       0.061367
     58 H15         22.6760    -1.8550     6.8480 h1         1 HP1       0.053200
     59 H16         21.6220    -1.1640     5.5980 h1         1 HP1       0.053200
     60 H17         22.4660    -2.8640     3.9540 hc         1 HP1       0.057200
     61 H18         23.4870    -3.5690     5.2130 hc         1 HP1       0.057200
     62 H19         24.7810    -1.4560     5.3850 h1         1 HP1       0.029200
     63 H20         23.6750    -0.6700     4.2560 h1         1 HP1       0.029200
     64 H21         25.0980    -4.1350     3.7480 h1         1 HP1       0.030867
     65 H22         26.3930    -3.5290     2.7070 h1         1 HP1       0.030867
     66 H23         26.4350    -3.1920     4.4530 h1         1 HP1       0.030867
     67 H24         26.4630    -1.2240     2.0070 h1         1 HP1       0.030867
     68 H25         25.3130    -0.0370     2.6550 h1         1 HP1       0.030867
     69 H26         26.6200    -0.6630     3.6890 h1         1 HP1       0.030867
     70 H27         14.8650     0.9670    13.1310 h4         1 HP1       0.044100
     71 H28         13.8340     2.6130    15.0580 h4         1 HP1       0.161000
     72 H29         12.1310     2.3640    16.8850 h1         1 HP1       0.064700
     73 H30         10.8230     1.2310    16.4410 h1         1 HP1       0.064700
     74 H31         12.1120     0.7150    17.5710 h1         1 HP1       0.064700
     75 H32         18.7890    -5.4440     4.2420 h1         1 HP1       0.068700
     76 H33         20.1130    -6.0350     5.2740 h1         1 HP1       0.068700
     77 H34         19.2810    -4.6200     7.1550 hc         1 HP1       0.061200
     78 H35         17.9670    -4.0070     6.0930 hc         1 HP1       0.061200
     79 H36         13.0320    -4.1840    12.8650 ho         1 HP1       0.464000
     80 H37         12.3420    -6.8660    12.4290 hn         1 HP1       0.346500
     81 H38         14.5770    -8.6650     9.0550 hn         1 HP1       0.324500
     82 H39         21.1740    -3.6050     7.1470 hn         1 HP1       0.310500
     83 H41         12.7400    -2.5630    13.9410 hn         1 HP1       0.352500
     84 H42         17.5990    -6.4860     6.5920 hn         1 HP1       0.314500
     85 C9          11.7230   -12.2610    10.6740 c3         1 HP1       0.062900
     86 C24         11.8130    -1.6160    15.4310 c          1 HP1       0.542600
     87 C15         17.4200   -11.0340     4.7240 c3         1 HP1       0.061900
     88 C28         11.8910     1.3140    16.6800 c3         1 HP1       0.063900
     89 O4          11.0090    -1.5900    16.3600 o          1 HP1      -0.613100
@<TRIPOS>BOND
     1     1     3 2   
     2     1    27 1   
     3     1    40 1   
     4     2     7 1   
     5     2     9 2   
     6     2    44 1   
     7     3    33 1   
     8     3    45 1   
     9     4    33 1   
    10     4    46 1   
    11     4    47 1   
    12     4    48 1   
    13     5     6 1   
    14     5    27 2   
    15     5    33 1   
    16     6    28 2   
    17     6    34 1   
    18     7     8 2   
    19     7    34 1   
    20     8    35 1   
    21     8    49 1   
    22     9    10 1   
    23     9    35 1   
    24    10    29 2   
    25    10    36 1   
    26    11    12 1   
    27    11    13 2   
    28    11    36 1   
    29    12    14 2   
    30    12    53 1   
    31    13    37 1   
    32    13    54 1   
    33    14    20 1   
    34    14    37 1   
    35    15    16 1   
    36    15    38 1   
    37    15    58 1   
    38    15    59 1   
    39    16    17 1   
    40    16    60 1   
    41    16    61 1   
    42    17    39 1   
    43    17    62 1   
    44    17    63 1   
    45    18    39 1   
    46    18    64 1   
    47    18    65 1   
    48    18    66 1   
    49    19    39 1   
    50    19    67 1   
    51    19    68 1   
    52    19    69 1   
    53    20    30 2   
    54    20    43 1   
    55    21    41 1   
    56    21    42 2   
    57    21    86 1   
    58    22    23 2   
    59    22    42 1   
    60    22    70 1   
    61    23    41 1   
    62    23    71 1   
    63    24    25 1   
    64    24    43 1   
    65    24    75 1   
    66    24    76 1   
    67    25    26 1   
    68    25    77 1   
    69    25    78 1   
    70    26    31 2   
    71    26    38 1   
    72    27    32 1   
    73    32    79 1   
    74    34    80 1   
    75    35    85 1   
    76    36    81 1   
    77    37    87 1   
    78    38    82 1   
    79    40    83 1   
    80    40    86 1   
    81    41    88 1   
    82    43    84 1   
    83    50    85 1   
    84    51    85 1   
    85    52    85 1   
    86    55    87 1   
    87    56    87 1   
    88    57    87 1   
    89    72    88 1   
    90    73    88 1   
    91    74    88 1   
    92    86    89 2   
@<TRIPOS>SUBSTRUCTURE
     1 HP1         1 TEMP              0 ****  ****    0 ROOT
