@<TRIPOS>MOLECULE
HP1
   89    92     1     0     0
SMALL
abcg2


@<TRIPOS>ATOM
      1 C           10.9760    -3.9430    15.3260 cc         1 HP1      -0.056400
      2 C1          13.1170    -8.2720    10.9110 cc         1 HP1      -0.176000
      3 C2           9.9910    -4.6090    16.0420 cd         1 HP1      -0.159000
      4 C3           8.9000    -6.8250    16.0750 c3         1 HP1       0.065900
      5 C4          10.7660    -6.0590    14.5130 cd         1 HP1      -0.238600
      6 C5          10.8870    -7.3130    13.7660 c          1 HP1       0.648700
      7 C6          12.1190    -8.3410    11.9040 cc         1 HP1      -0.014400
      8 C8          11.5360    -9.5990    11.8120 cd         1 HP1      -0.177000
      9 C10         13.1220    -9.4880    10.2320 cd         1 HP1      -0.231600
     10 C11         13.9600    -9.9430     9.1170 c          1 HP1       0.645700
     11 C12         15.7140    -9.1990     7.5620 cc         1 HP1      -0.020400
     12 C13         16.5950    -8.2000     7.0930 cc         1 HP1      -0.183000
     13 C14         15.9290   -10.3330     6.7900 cd         1 HP1      -0.175000
     14 C16         17.3210    -8.7460     6.0420 cd         1 HP1      -0.229600
     15 C18         22.4420    -2.2100     4.5050 c3         1 HP1       0.105000
     16 C19         23.6870    -2.9300     3.9880 c3         1 HP1      -0.102400
     17 C20         24.6460    -1.9510     3.3220 c3         1 HP1       0.166800
     18 C21         26.6820    -3.2390     3.5920 c3         1 HP1       0.148100
     19 C22         26.4990    -1.6250     1.8360 c3         1 HP1       0.148100
     20 C23         18.3330    -8.1130     5.1820 c          1 HP1       0.641700
     21 C25         11.6510    -0.4050    16.2000 cc         1 HP1       0.333000
     22 C26         12.9040     1.1770    15.4580 cd         1 HP1       0.234900
     23 C27         12.1780     1.7030    16.5010 cc         1 HP1      -0.213000
     24 C29         19.8720    -6.1940     4.9780 c3         1 HP1       0.112000
     25 C30         19.7040    -4.7240     5.3610 c3         1 HP1      -0.178400
     26 C31         20.5920    -3.8380     4.5060 c          1 HP1       0.594100
     27 C32         11.4660    -4.8610    14.3730 cc         1 HP1       0.041100
     28 O1          10.2020    -8.3120    14.0080 o          1 HP1      -0.627100
     29 O2          13.9130   -11.0900     8.6640 o          1 HP1      -0.621100
     30 O3          18.5960    -8.5310     4.0480 o          1 HP1      -0.613100
     31 O5          20.4660    -3.8030     3.2790 o          1 HP1      -0.597100
     32 O6          12.4070    -4.6130    13.4050 oh         1 HP1      -0.548100
     33 N            9.8670    -5.8700    15.5490 na         1 HP1       0.067000
     34 N1          11.8200    -7.2930    12.7730 ns         1 HP1      -0.372100
     35 N3          12.1490   -10.2820    10.8010 na         1 HP1       0.065000
     36 N4          14.8080    -9.0050     8.6080 ns         1 HP1      -0.371100
     37 N5          16.8980   -10.0440     5.8700 na         1 HP1       0.063000
     38 N6          21.5010    -3.1000     5.1670 ns         1 HP1      -0.507900
     39 N7          25.7760    -2.5920     2.6510 n3         1 HP1      -0.710600
     40 N8          11.4280    -2.6300    15.4500 ns         1 HP1      -0.357100
     41 N9          11.3840     0.6920    16.9680 na         1 HP1      -0.122500
     42 N10         12.5690    -0.1320    15.2790 nd         1 HP1      -0.673000
     43 N11         18.9360    -7.0240     5.7130 ns         1 HP1      -0.507900
     44 H1          13.7590    -7.4240    10.7310 ha         1 HP1       0.128000
     45 H2           9.3760    -4.2640    16.8520 h4         1 HP1       0.178000
     46 H3           8.3670    -6.3350    16.8860 h1         1 HP1       0.064033
     47 H4           8.1940    -7.1230    15.3030 h1         1 HP1       0.064033
     48 H5           9.4010    -7.7140    16.4510 h1         1 HP1       0.064033
     49 H6          10.7430   -10.0420    12.3810 h4         1 HP1       0.177000
     50 H7          10.9210   -11.9220    11.0590 h1         1 HP1       0.061367
     51 H8          11.4670   -11.6810     9.3850 h1         1 HP1       0.061367
     52 H9          12.5860   -12.3310    10.5890 h1         1 HP1       0.061367
     53 H10         16.6640    -7.1890     7.4630 ha         1 HP1       0.127000
     54 H11         15.4760   -11.3040     6.8340 h4         1 HP1       0.178000
     55 H12         16.9830   -11.9910     5.1800 h1         1 HP1       0.061367
     56 H13         17.0810   -10.7620     3.8990 h1         1 HP1       0.061367
     57 H14         18.4790   -11.0680     4.9390 h1         1 HP1       0.061367
     58 H15         22.7220    -1.4390     5.2240 h1         1 HP1       0.053200
     59 H16         21.9240    -1.7220     3.6780 h1         1 HP1       0.053200
     60 H17         23.3890    -3.6930     3.2650 hc         1 HP1       0.057200
     61 H18         24.1680    -3.4420     4.8250 hc         1 HP1       0.057200
     62 H19         25.0010    -1.2170     4.0700 h1         1 HP1       0.029200
     63 H20         24.0980    -1.3850     2.5640 h1         1 HP1       0.029200
     64 H21         26.1670    -4.0220     4.1470 h1         1 HP1       0.030867
     65 H22         27.5080    -3.6970     3.0460 h1         1 HP1       0.030867
     66 H23         27.1070    -2.5240     4.3200 h1         1 HP1       0.030867
     67 H24         27.3120    -2.1240     1.3060 h1         1 HP1       0.030867
     68 H25         25.8260    -1.1810     1.1010 h1         1 HP1       0.030867
     69 H26         26.9350    -0.8090     2.4380 h1         1 HP1       0.030867
     70 H27         13.6370     1.6720    14.8410 h4         1 HP1       0.044100
     71 H28         12.1560     2.6840    16.9430 h4         1 HP1       0.161000
     72 H29         10.4930     1.8490    18.4350 h1         1 HP1       0.064700
     73 H30          9.4330     0.6030    17.7390 h1         1 HP1       0.064700
     74 H31         10.7070     0.1400    18.8780 h1         1 HP1       0.064700
     75 H32         19.6790    -6.3300     3.9170 h1         1 HP1       0.068700
     76 H33         20.9020    -6.5120     5.1720 h1         1 HP1       0.068700
     77 H34         19.9150    -4.5840     6.4230 hc         1 HP1       0.061200
     78 H35         18.6700    -4.4210     5.1800 hc         1 HP1       0.061200
     79 H36         13.2240    -4.2760    13.7990 ho         1 HP1       0.464000
     80 H37         12.3450    -6.4360    12.6510 hn         1 HP1       0.346500
     81 H38         14.7890    -8.0780     9.0010 hn         1 HP1       0.324500
     82 H39         21.5740    -3.2110     6.1650 hn         1 HP1       0.310500
     83 H41         12.1000    -2.2940    14.7730 hn         1 HP1       0.352500
     84 H42         18.7740    -6.8090     6.6840 hn         1 HP1       0.314500
     85 C9          11.7630   -11.6380    10.4310 c3         1 HP1       0.062900
     86 C24         11.0050    -1.7220    16.3630 c          1 HP1       0.542600
     87 C15         17.3930   -11.0210     4.9090 c3         1 HP1       0.061900
     88 C28         10.4420     0.8250    18.0760 c3         1 HP1       0.063900
     89 O4          10.1710    -1.9610    17.2360 o          1 HP1      -0.613100
@<TRIPOS>BOND
     1     1     3 2   
     2     1    27 1   
     3     1    40 1   
     4     2     7 1   
     5     2     9 2   
     6     2    44 1   
     7     3    33 1   
     8     3    45 1   
     9     4    33 1   
    10     4    46 1   
    11     4    47 1   
    12     4    48 1   
    13     5     6 1   
    14     5    27 2   
    15     5    33 1   
    16     6    28 2   
    17     6    34 1   
    18     7     8 2   
    19     7    34 1   
    20     8    35 1   
    21     8    49 1   
    22     9    10 1   
    23     9    35 1   
    24    10    29 2   
    25    10    36 1   
    26    11    12 1   
    27    11    13 2   
    28    11    36 1   
    29    12    14 2   
    30    12    53 1   
    31    13    37 1   
    32    13    54 1   
    33    14    20 1   
    34    14    37 1   
    35    15    16 1   
    36    15    38 1   
    37    15    58 1   
    38    15    59 1   
    39    16    17 1   
    40    16    60 1   
    41    16    61 1   
    42    17    39 1   
    43    17    62 1   
    44    17    63 1   
    45    18    39 1   
    46    18    64 1   
    47    18    65 1   
    48    18    66 1   
    49    19    39 1   
    50    19    67 1   
    51    19    68 1   
    52    19    69 1   
    53    20    30 2   
    54    20    43 1   
    55    21    41 1   
    56    21    42 2   
    57    21    86 1   
    58    22    23 2   
    59    22    42 1   
    60    22    70 1   
    61    23    41 1   
    62    23    71 1   
    63    24    25 1   
    64    24    43 1   
    65    24    75 1   
    66    24    76 1   
    67    25    26 1   
    68    25    77 1   
    69    25    78 1   
    70    26    31 2   
    71    26    38 1   
    72    27    32 1   
    73    32    79 1   
    74    34    80 1   
    75    35    85 1   
    76    36    81 1   
    77    37    87 1   
    78    38    82 1   
    79    40    83 1   
    80    40    86 1   
    81    41    88 1   
    82    43    84 1   
    83    50    85 1   
    84    51    85 1   
    85    52    85 1   
    86    55    87 1   
    87    56    87 1   
    88    57    87 1   
    89    72    88 1   
    90    73    88 1   
    91    74    88 1   
    92    86    89 2   
@<TRIPOS>SUBSTRUCTURE
     1 HP1         1 TEMP              0 ****  ****    0 ROOT
