@<TRIPOS>MOLECULE
HP2
   89    92     1     0     0
SMALL
No Charge or Current Charge


@<TRIPOS>ATOM
      1 N1          -4.1210     8.4160     4.2980 ns         1 HP2      -0.367100
      2 C1          -2.4930     7.0480     2.9540 cc         1 HP2       0.029100
      3 C8          -3.7650     5.9870     4.4800 cd         1 HP2      -0.162000
      4 N3          -2.9310     5.0660     3.8380 na         1 HP2       0.068000
      5 C6          -3.5000     7.2150     3.9370 cc         1 HP2      -0.021400
      6 C9          -2.9130     3.6260     4.1390 c3         1 HP2       0.063900
      7 C10         -2.1330     5.7210     2.8820 cd         1 HP2      -0.263600
      8 C11         -1.1130     5.1010     1.9830 c          1 HP2       0.645700
      9 O2          -0.8560     3.9040     1.9880 o          1 HP2      -0.616100
     10 N4          -0.4870     6.0010     1.1480 ns         1 HP2      -0.377100
     11 C12          0.4980     5.7970     0.1930 cc         1 HP2      -0.021400
     12 C13          1.0540     6.8130    -0.5970 cc         1 HP2      -0.183000
     13 C14          1.0880     4.6100    -0.1430 cd         1 HP2      -0.176000
     14 N5           2.0170     4.8960    -1.1510 na         1 HP2       0.065000
     15 C15          2.8740     3.8910    -1.7990 c3         1 HP2       0.058900
     16 C16          2.0000     6.2730    -1.4380 cd         1 HP2      -0.228600
     17 C23          2.8210     7.0140    -2.4370 c          1 HP2       0.637700
     18 O3           3.6530     6.4910    -3.1650 o          1 HP2      -0.611100
     19 N7           4.2460    15.0810    -4.0950 n3         1 HP2      -0.714600
     20 C21          3.5560    15.7880    -2.9920 c3         1 HP2       0.147600
     21 C22          5.5650    14.5530    -3.6690 c3         1 HP2       0.147600
     22 C18          2.9230    12.5590    -6.7840 c3         1 HP2       0.105000
     23 C19          3.9310    13.4660    -6.0460 c3         1 HP2      -0.102400
     24 N6           2.4830    11.4180    -5.9740 ns         1 HP2      -0.511900
     25 N           -6.4810    10.6520     6.1970 na         1 HP2       0.064000
     26 C2          -6.5710    12.0270     5.9670 cc         1 HP2      -0.176000
     27 C           -5.6710    12.2980     4.9780 cd         1 HP2      -0.021400
     28 C32         -5.0250    11.1140     4.5920 cd         1 HP2      -0.169000
     29 C4          -5.5220    10.0710     5.3480 cc         1 HP2      -0.231600
     30 C5          -5.1010     8.6450     5.2500 c          1 HP2       0.645700
     31 O1          -5.5800     7.7620     5.9490 o          1 HP2      -0.618100
     32 N9          -5.6640    17.2130     3.8160 na         1 HP2      -0.124500
     33 C27         -4.8850    17.8410     2.8680 cc         1 HP2      -0.216000
     34 C26         -4.1150    16.8600     2.3090 cd         1 HP2       0.235900
     35 N10         -4.3970    15.6410     2.8840 nd         1 HP2      -0.676000
     36 C25         -5.3440    15.8590     3.8060 cc         1 HP2       0.338000
     37 C24         -5.9400    14.7740     4.6740 c          1 HP2       0.542600
     38 O4          -6.8100    14.9500     5.5250 o          1 HP2      -0.618100
     39 O5           4.3770    10.1600    -6.1400 o          1 HP2      -0.600100
     40 C31          3.2540    10.3150    -5.6840 c          1 HP2       0.592100
     41 C29          3.2050     9.3210    -3.3740 c3         1 HP2       0.114000
     42 N11          2.5620     8.3650    -2.4700 ns         1 HP2      -0.505900
     43 O6          -1.9940     8.0680     2.2220 oh         1 HP2      -0.550100
     44 HN1         -3.8500     9.2610     3.8220 hn         1 HP2       0.337500
     45 H8          -4.4620     5.6870     5.2520 h4         1 HP2       0.180000
     46 H91         -3.1740     3.0590     3.2370 h1         1 HP2       0.063700
     47 H92         -1.9120     3.3340     4.4790 h1         1 HP2       0.063700
     48 H93         -3.6410     3.4000     4.9280 h1         1 HP2       0.063700
     49 HN4         -0.8300     6.9460     1.2860 hn         1 HP2       0.334500
     50 H13          0.7580     7.8560    -0.5280 ha         1 HP2       0.127000
     51 H14          0.9330     3.6070     0.2370 h4         1 HP2       0.177000
     52 H151         2.6660     3.8720    -2.8750 h1         1 HP2       0.063367
     53 H152         3.9270     4.1460    -1.6340 h1         1 HP2       0.063367
     54 H153         2.6720     2.9000    -1.3760 h1         1 HP2       0.063367
     55 H211         2.6230    16.2450    -3.3470 h1         1 HP2       0.031200
     56 H212         3.3110    15.0950    -2.1750 h1         1 HP2       0.031200
     57 H213         4.1900    16.5880    -2.5870 h1         1 HP2       0.031200
     58 H221         6.1400    14.1780    -4.5250 h1         1 HP2       0.031200
     59 H222         6.1630    15.3430    -3.1950 h1         1 HP2       0.031200
     60 H223         5.4450    13.7350    -2.9460 h1         1 HP2       0.031200
     61 H201         3.1710    13.2500    -4.0280 h1         1 HP2       0.023200
     62 H202         2.4040    14.5290    -4.9730 h1         1 HP2       0.023200
     63 H181         2.0400    13.1490    -7.0640 h1         1 HP2       0.055700
     64 H182         3.3800    12.1830    -7.7090 h1         1 HP2       0.055700
     65 H191         4.2200    14.2830    -6.7170 hc         1 HP2       0.063700
     66 H192         4.8380    12.8900    -5.8370 hc         1 HP2       0.063700
     67 HN6          1.5540    11.4440    -5.5700 hn         1 HP2       0.308500
     68 H31         -6.6240     9.4550     7.9270 h1         1 HP2       0.062033
     69 H32A        -7.9520    10.6320     7.7140 h1         1 HP2       0.062033
     70 H33         -7.8910     9.1660     6.6940 h1         1 HP2       0.062033
     71 H2          -7.2500    12.6670     6.5150 h4         1 HP2       0.176000
     72 HN8         -4.6900    13.5730     3.6710 hn         1 HP2       0.353500
     73 H32         -4.2620    11.0560     3.8220 ha         1 HP2       0.134000
     74 H281        -6.3840    17.7370     5.7320 h1         1 HP2       0.068033
     75 H282        -6.6850    18.9520     4.4570 h1         1 HP2       0.068033
     76 H283        -7.6490    17.4480     4.4990 h1         1 HP2       0.068033
     77 H27         -4.9300    18.9040     2.6650 h4         1 HP2       0.161000
     78 H26         -3.3750    16.9630     1.5240 h4         1 HP2       0.043100
     79 H301         1.5130     9.4840    -4.6990 hc         1 HP2       0.068200
     80 H302         2.7470     8.2840    -5.2090 hc         1 HP2       0.068200
     81 H291         4.2800     9.0970    -3.4310 h1         1 HP2       0.066200
     82 H292         3.0940    10.3290    -2.9520 h1         1 HP2       0.066200
     83 H11          1.8610     8.7020    -1.8240 hn         1 HP2       0.316500
     84 HO6         -2.4320     8.8960     2.5050 ho         1 HP2       0.460000
     85 C3          -7.2870     9.9320     7.1950 c3         1 HP2       0.061900
     86 N8          -5.3920    13.5270     4.4030 ns         1 HP2      -0.355100
     87 C30          2.5860     9.2810    -4.7820 c3         1 HP2      -0.186400
     88 C28         -6.6560    17.8780     4.6790 c3         1 HP2       0.051900
     89 C20          3.3720    14.0660    -4.7360 c3         1 HP2       0.165800
@<TRIPOS>BOND
     1     1     5 1   
     2     1    30 1   
     3     1    44 1   
     4     2     5 1   
     5     2     7 2   
     6     2    43 1   
     7     3     4 1   
     8     3     5 2   
     9     3    45 1   
    10     4     6 1   
    11     4     7 1   
    12     6    46 1   
    13     6    47 1   
    14     6    48 1   
    15     7     8 1   
    16     8     9 2   
    17     8    10 1   
    18    10    11 1   
    19    10    49 1   
    20    11    12 1   
    21    11    13 2   
    22    12    16 2   
    23    12    50 1   
    24    13    14 1   
    25    13    51 1   
    26    14    15 1   
    27    14    16 1   
    28    15    52 1   
    29    15    53 1   
    30    15    54 1   
    31    16    17 1   
    32    17    18 2   
    33    17    42 1   
    34    19    20 1   
    35    19    21 1   
    36    19    89 1   
    37    20    55 1   
    38    20    56 1   
    39    20    57 1   
    40    21    58 1   
    41    21    59 1   
    42    21    60 1   
    43    22    23 1   
    44    22    24 1   
    45    22    63 1   
    46    22    64 1   
    47    23    65 1   
    48    23    66 1   
    49    23    89 1   
    50    24    40 1   
    51    24    67 1   
    52    25    26 1   
    53    25    29 1   
    54    25    85 1   
    55    26    27 2   
    56    26    71 1   
    57    27    28 1   
    58    27    86 1   
    59    28    29 2   
    60    28    73 1   
    61    29    30 1   
    62    30    31 2   
    63    32    33 1   
    64    32    36 1   
    65    32    88 1   
    66    33    34 2   
    67    33    77 1   
    68    34    35 1   
    69    34    78 1   
    70    35    36 2   
    71    36    37 1   
    72    37    38 2   
    73    37    86 1   
    74    39    40 2   
    75    40    87 1   
    76    41    42 1   
    77    41    81 1   
    78    41    82 1   
    79    41    87 1   
    80    42    83 1   
    81    43    84 1   
    82    61    89 1   
    83    62    89 1   
    84    68    85 1   
    85    69    85 1   
    86    70    85 1   
    87    72    86 1   
    88    74    88 1   
    89    75    88 1   
    90    76    88 1   
    91    79    87 1   
    92    80    87 1   
@<TRIPOS>SUBSTRUCTURE
     1 HP2         1 TEMP              0 ****  ****    0 ROOT
