@<TRIPOS>MOLECULE
HP2
   89    92     1     0     0
SMALL
abcg2


@<TRIPOS>ATOM
      1 N1          -3.9600     8.8660     4.5470 ns         1 HP2      -0.367100
      2 C1          -2.5740     7.6270     2.9420 cc         1 HP2       0.029100
      3 C8          -3.2470     6.4490     4.7290 cd         1 HP2      -0.162000
      4 N3          -2.5120     5.6300     3.9250 na         1 HP2       0.068000
      5 C6          -3.3090     7.7040     4.1410 cc         1 HP2      -0.021400
      6 C9          -2.2440     4.2370     4.2550 c3         1 HP2       0.063900
      7 C10         -2.0690     6.3320     2.8170 cd         1 HP2      -0.263600
      8 C11         -1.2260     5.7400     1.7770 c          1 HP2       0.645700
      9 O2          -1.0880     4.5230     1.6270 o          1 HP2      -0.616100
     10 N4          -0.6010     6.6480     0.9770 ns         1 HP2      -0.377100
     11 C12          0.2180     6.3640    -0.1170 cc         1 HP2      -0.021400
     12 C13          0.8130     7.3560    -0.9240 cc         1 HP2      -0.183000
     13 C14          0.5950     5.1330    -0.6340 cd         1 HP2      -0.176000
     14 N5           1.3810     5.3520    -1.7310 na         1 HP2       0.065000
     15 C15          2.0180     4.2660    -2.4670 c3         1 HP2       0.058900
     16 C16          1.5390     6.7080    -1.9170 cd         1 HP2      -0.228600
     17 C23          2.3420     7.2840    -3.0060 c          1 HP2       0.637700
     18 O3           2.6860     6.6380    -4.0030 o          1 HP2      -0.611100
     19 N7           6.8560    13.8460    -4.4490 n3         1 HP2      -0.714600
     20 C21          6.9470    14.9180    -3.4670 c3         1 HP2       0.147600
     21 C22          7.2700    12.5810    -3.8530 c3         1 HP2       0.147600
     22 C18          4.0120    12.8250    -6.8330 c3         1 HP2       0.105000
     23 C19          5.4450    12.9760    -6.3170 c3         1 HP2      -0.102400
     24 N6           3.1870    11.9880    -5.9730 ns         1 HP2      -0.511900
     25 N           -5.9390    10.7900     6.9460 na         1 HP2       0.064000
     26 C2          -6.5410    11.9930     6.7140 cc         1 HP2      -0.176000
     27 C           -6.3900    12.3010     5.3680 cd         1 HP2      -0.021400
     28 C32         -5.6670    11.2450     4.7760 cd         1 HP2      -0.169000
     29 C4          -5.3930    10.3160     5.7730 cc         1 HP2      -0.231600
     30 C5          -4.7080     9.0210     5.6730 c          1 HP2       0.645700
     31 O1          -4.8050     8.1330     6.5240 o          1 HP2      -0.618100
     32 N9          -8.6100    16.6040     4.3410 na         1 HP2      -0.124500
     33 C27         -8.6370    17.2710     3.1470 cc         1 HP2      -0.216000
     34 C26         -7.8890    16.5260     2.2680 cd         1 HP2       0.235900
     35 N10         -7.4100    15.4160     2.8990 nd         1 HP2      -0.676000
     36 C25         -7.8580    15.4790     4.1490 cc         1 HP2       0.338000
     37 C24         -7.5590    14.4510     5.1700 c          1 HP2       0.542600
     38 O4          -7.9200    14.5260     6.3460 o          1 HP2      -0.618100
     39 O5           3.9680    10.0170    -6.7690 o          1 HP2      -0.600100
     40 C31          3.2580    10.6440    -5.9790 c          1 HP2       0.592100
     41 C29          3.3950     9.3370    -3.8590 c3         1 HP2       0.114000
     42 N11          2.6900     8.5840    -2.8420 ns         1 HP2      -0.505900
     43 O6          -2.3880     8.7040     2.1090 oh         1 HP2      -0.550100
     44 HN1         -3.8580     9.6540     3.9280 hn         1 HP2       0.337500
     45 H8          -3.6670     6.0950     5.6500 h4         1 HP2       0.180000
     46 H91         -2.7440     3.5710     3.5540 h1         1 HP2       0.063700
     47 H92         -1.1750     4.0360     4.2310 h1         1 HP2       0.063700
     48 H93         -2.6220     4.0610     5.2600 h1         1 HP2       0.063700
     49 HN4         -0.7080     7.6250     1.2090 hn         1 HP2       0.334500
     50 H13          0.6930     8.4210    -0.8080 ha         1 HP2       0.127000
     51 H14          0.3620     4.1370    -0.3090 h4         1 HP2       0.177000
     52 H151         1.8260     4.3630    -3.5300 h1         1 HP2       0.063367
     53 H152         3.0950     4.2710    -2.3010 h1         1 HP2       0.063367
     54 H153         1.6030     3.3310    -2.0980 h1         1 HP2       0.063367
     55 H211         6.6870    15.8700    -3.9320 h1         1 HP2       0.031200
     56 H212         6.2750    14.7590    -2.6050 h1         1 HP2       0.031200
     57 H213         7.9680    14.9830    -3.0880 h1         1 HP2       0.031200
     58 H221         7.2650    11.7860    -4.5980 h1         1 HP2       0.031200
     59 H222         8.2860    12.6730    -3.4660 h1         1 HP2       0.031200
     60 H223         6.6090    12.2800    -3.0220 h1         1 HP2       0.031200
     61 H201         4.8060    13.3410    -4.2790 h1         1 HP2       0.023200
     62 H202         5.1730    14.7880    -5.2170 h1         1 HP2       0.023200
     63 H181         3.5270    13.8000    -6.9020 h1         1 HP2       0.055700
     64 H182         4.0200    12.3830    -7.8300 h1         1 HP2       0.055700
     65 H191         6.0380    13.4870    -7.0800 hc         1 HP2       0.063700
     66 H192         5.8710    11.9800    -6.1930 hc         1 HP2       0.063700
     67 HN6          2.6220    12.4330    -5.2690 hn         1 HP2       0.308500
     68 H31         -4.8530     9.9470     8.5360 h1         1 HP2       0.062033
     69 H32A        -6.2840    10.8990     8.9800 h1         1 HP2       0.062033
     70 H33         -6.4670     9.2650     8.3010 h1         1 HP2       0.062033
     71 H2          -7.0170    12.5400     7.5050 h4         1 HP2       0.176000
     72 HN8         -6.6100    13.4800     3.6850 hn         1 HP2       0.353500
     73 H32         -5.4050    11.1660     3.7330 ha         1 HP2       0.134000
     74 H281        -8.9290    16.5370     6.3990 h1         1 HP2       0.068033
     75 H282        -9.2000    18.1250     5.6360 h1         1 HP2       0.068033
     76 H283       -10.3890    16.8230     5.4310 h1         1 HP2       0.068033
     77 H27         -9.1710    18.2000     3.0360 h4         1 HP2       0.161000
     78 H26         -7.6750    16.7350     1.2320 h4         1 HP2       0.043100
     79 H301         1.7340    10.5990    -4.4420 hc         1 HP2       0.068200
     80 H302         1.9030     9.1170    -5.3990 hc         1 HP2       0.068200
     81 H291         4.1150     8.6820    -4.3450 h1         1 HP2       0.066200
     82 H292         3.9410    10.1370    -3.3590 h1         1 HP2       0.066200
     83 H11          2.3930     9.0730    -2.0140 hn         1 HP2       0.316500
     84 HO6         -2.7680     8.5300     1.2350 ho         1 HP2       0.460000
     85 C3          -5.8810    10.1810     8.2690 c3         1 HP2       0.061900
     86 N8          -6.8430    13.4180     4.6680 ns         1 HP2      -0.355100
     87 C30          2.4510     9.9280    -4.9180 c3         1 HP2      -0.186400
     88 C28         -9.3280    17.0490     5.5340 c3         1 HP2       0.051900
     89 C20          5.5100    13.7680    -5.0160 c3         1 HP2       0.165800
@<TRIPOS>BOND
     1     1     5 1   
     2     1    30 1   
     3     1    44 1   
     4     2     5 1   
     5     2     7 2   
     6     2    43 1   
     7     3     4 1   
     8     3     5 2   
     9     3    45 1   
    10     4     6 1   
    11     4     7 1   
    12     6    46 1   
    13     6    47 1   
    14     6    48 1   
    15     7     8 1   
    16     8     9 2   
    17     8    10 1   
    18    10    11 1   
    19    10    49 1   
    20    11    12 1   
    21    11    13 2   
    22    12    16 2   
    23    12    50 1   
    24    13    14 1   
    25    13    51 1   
    26    14    15 1   
    27    14    16 1   
    28    15    52 1   
    29    15    53 1   
    30    15    54 1   
    31    16    17 1   
    32    17    18 2   
    33    17    42 1   
    34    19    20 1   
    35    19    21 1   
    36    19    89 1   
    37    20    55 1   
    38    20    56 1   
    39    20    57 1   
    40    21    58 1   
    41    21    59 1   
    42    21    60 1   
    43    22    23 1   
    44    22    24 1   
    45    22    63 1   
    46    22    64 1   
    47    23    65 1   
    48    23    66 1   
    49    23    89 1   
    50    24    40 1   
    51    24    67 1   
    52    25    26 1   
    53    25    29 1   
    54    25    85 1   
    55    26    27 2   
    56    26    71 1   
    57    27    28 1   
    58    27    86 1   
    59    28    29 2   
    60    28    73 1   
    61    29    30 1   
    62    30    31 2   
    63    32    33 1   
    64    32    36 1   
    65    32    88 1   
    66    33    34 2   
    67    33    77 1   
    68    34    35 1   
    69    34    78 1   
    70    35    36 2   
    71    36    37 1   
    72    37    38 2   
    73    37    86 1   
    74    39    40 2   
    75    40    87 1   
    76    41    42 1   
    77    41    81 1   
    78    41    82 1   
    79    41    87 1   
    80    42    83 1   
    81    43    84 1   
    82    61    89 1   
    83    62    89 1   
    84    68    85 1   
    85    69    85 1   
    86    70    85 1   
    87    72    86 1   
    88    74    88 1   
    89    75    88 1   
    90    76    88 1   
    91    79    87 1   
    92    80    87 1   
@<TRIPOS>SUBSTRUCTURE
     1 HP2         1 TEMP              0 ****  ****    0 ROOT
