@<TRIPOS>MOLECULE
HP4
    5     4     1     0     0
SMALL
bcc


@<TRIPOS>ATOM
      1 P1          -0.0120    -0.3170     0.0220 p5         1 HP4       1.106800
      2 O1          -1.3360     0.4070     0.1050 o          1 HP4      -0.829500
      3 O2           1.2850     0.4570    -0.0190 o          1 HP4      -0.829500
      4 H4           0.0560    -1.2780     1.0830 hp         1 HP4      -0.224400
      5 H3          -0.0460    -1.2200    -1.0890 hp         1 HP4      -0.224400
@<TRIPOS>BOND
     1     1     2 1   
     2     1     3 1   
     3     1     4 1   
     4     1     5 1   
@<TRIPOS>SUBSTRUCTURE
     1 HP4         1 TEMP              0 ****  ****    0 ROOT
