@<TRIPOS>MOLECULE
HP4
    5     4     1     0     0
SMALL
No Charge or Current Charge


@<TRIPOS>ATOM
      1 P1          -0.0110    -0.3420     0.0220 p5         1 HP4       1.106800
      2 O1          -1.2770     0.4550     0.1010 o          1 HP4      -0.829500
      3 O2           1.2240     0.5030    -0.0160 o          1 HP4      -0.829500
      4 H4           0.0560    -1.3090     1.0610 hp         1 HP4      -0.224400
      5 H3          -0.0450    -1.2580    -1.0650 hp         1 HP4      -0.224400
@<TRIPOS>BOND
     1     1     2 1   
     2     1     3 1   
     3     1     4 1   
     4     1     5 1   
@<TRIPOS>SUBSTRUCTURE
     1 HP4         1 TEMP              0 ****  ****    0 ROOT
