@<TRIPOS>MOLECULE
HP6
   23    22     1     0     0
SMALL
abcg2


@<TRIPOS>ATOM
      1 C20          3.8040     0.3580     0.0000 c3         1 HP6      -0.088100
      2 C21          2.5410    -0.4920     0.0070 c3         1 HP6      -0.074900
      3 C22          1.2680     0.3460    -0.0040 c3         1 HP6      -0.075900
      4 C23         -0.0080    -0.4880    -0.0000 c3         1 HP6      -0.074400
      5 C24         -1.2750     0.3570    -0.0080 c3         1 HP6      -0.075900
      6 C25         -2.5560    -0.4700    -0.0140 c3         1 HP6      -0.074900
      7 C26         -3.8110     0.3920    -0.0220 c3         1 HP6      -0.088100
      8 H201         3.8420     1.0110     0.8740 hc         1 HP6       0.031367
      9 H202         4.7050    -0.2560     0.0070 hc         1 HP6       0.031367
     10 H203         3.8450     0.9930    -0.8870 hc         1 HP6       0.031367
     11 H211         2.5420    -1.1600    -0.8600 hc         1 HP6       0.036700
     12 H212         2.5380    -1.1400     0.8890 hc         1 HP6       0.036700
     13 H221         1.2670     1.0150     0.8640 hc         1 HP6       0.036700
     14 H222         1.2720     0.9970    -0.8860 hc         1 HP6       0.036700
     15 H231        -0.0090    -1.1530    -0.8710 hc         1 HP6       0.036700
     16 H232        -0.0110    -1.1410     0.8790 hc         1 HP6       0.036700
     17 H241        -1.2760     1.0180     0.8660 hc         1 HP6       0.036700
     18 H242        -1.2670     1.0160    -0.8840 hc         1 HP6       0.036700
     19 H251        -2.5560    -1.1290    -0.8880 hc         1 HP6       0.036700
     20 H252        -2.5660    -1.1270     0.8610 hc         1 HP6       0.036700
     21 H261        -4.7180    -0.2140    -0.0210 hc         1 HP6       0.031367
     22 H262        -3.8470     1.0420     0.8540 hc         1 HP6       0.031367
     23 H263        -3.8420     1.0310    -0.9070 hc         1 HP6       0.031367
@<TRIPOS>BOND
     1     1     2 1   
     2     1     8 1   
     3     1     9 1   
     4     1    10 1   
     5     2     3 1   
     6     2    11 1   
     7     2    12 1   
     8     3     4 1   
     9     3    13 1   
    10     3    14 1   
    11     4     5 1   
    12     4    15 1   
    13     4    16 1   
    14     5     6 1   
    15     5    17 1   
    16     5    18 1   
    17     6     7 1   
    18     6    19 1   
    19     6    20 1   
    20     7    21 1   
    21     7    22 1   
    22     7    23 1   
@<TRIPOS>SUBSTRUCTURE
     1 HP6         1 TEMP              0 ****  ****    0 ROOT
