@<TRIPOS>MOLECULE
HP6
   23    22     1     0     0
SMALL
No Charge or Current Charge


@<TRIPOS>ATOM
      1 C20          3.8580     0.3520     0.0030 c3         1 HP6      -0.088100
      2 C21          2.5690    -0.4920     0.0050 c3         1 HP6      -0.074900
      3 C22          1.2850     0.3650    -0.0050 c3         1 HP6      -0.075900
      4 C23         -0.0070    -0.4810    -0.0030 c3         1 HP6      -0.074400
      5 C24         -1.2920     0.3760    -0.0130 c3         1 HP6      -0.075900
      6 C25         -2.5840    -0.4690    -0.0110 c3         1 HP6      -0.074900
      7 C26         -3.8650     0.3860    -0.0210 c3         1 HP6      -0.088100
      8 H201         3.9010     0.9970     0.8890 hc         1 HP6       0.031367
      9 H202         4.7410    -0.2990     0.0100 hc         1 HP6       0.031367
     10 H203         3.9060     0.9850    -0.8910 hc         1 HP6       0.031367
     11 H211         2.5730    -1.1510    -0.8720 hc         1 HP6       0.036700
     12 H212         2.5680    -1.1390     0.8910 hc         1 HP6       0.036700
     13 H221         1.2850     1.0240     0.8730 hc         1 HP6       0.036700
     14 H222         1.2900     1.0120    -0.8910 hc         1 HP6       0.036700
     15 H231        -0.0080    -1.1400    -0.8810 hc         1 HP6       0.036700
     16 H232        -0.0130    -1.1280     0.8830 hc         1 HP6       0.036700
     17 H241        -1.2920     1.0350     0.8650 hc         1 HP6       0.036700
     18 H242        -1.2860     1.0230    -0.8990 hc         1 HP6       0.036700
     19 H251        -2.5890    -1.1280    -0.8890 hc         1 HP6       0.036700
     20 H252        -2.5940    -1.1160     0.8750 hc         1 HP6       0.036700
     21 H261        -4.7540    -0.2570    -0.0190 hc         1 HP6       0.031367
     22 H262        -3.9080     1.0320     0.8640 hc         1 HP6       0.031367
     23 H263        -3.9020     1.0200    -0.9150 hc         1 HP6       0.031367
@<TRIPOS>BOND
     1     1     2 1   
     2     1     8 1   
     3     1     9 1   
     4     1    10 1   
     5     2     3 1   
     6     2    11 1   
     7     2    12 1   
     8     3     4 1   
     9     3    13 1   
    10     3    14 1   
    11     4     5 1   
    12     4    15 1   
    13     4    16 1   
    14     5     6 1   
    15     5    17 1   
    16     5    18 1   
    17     6     7 1   
    18     6    19 1   
    19     6    20 1   
    20     7    21 1   
    21     7    22 1   
    22     7    23 1   
@<TRIPOS>SUBSTRUCTURE
     1 HP6         1 TEMP              0 ****  ****    0 ROOT
