@<TRIPOS>MOLECULE
HP7
   62    64     1     0     0
SMALL
No Charge or Current Charge


@<TRIPOS>ATOM
      1 N1           5.1450    -0.0560     0.3940 n          1 HP7      -0.327000
      2 C2           6.4250    -0.5590     0.6960 c          1 HP7       0.608000
      3 O2           6.7830    -1.6930     0.4200 o          1 HP7      -0.578000
      4 N3           7.2720     0.2940     1.3330 ns         1 HP7      -0.473500
      5 C4           7.0410     1.5750     1.7120 c          1 HP7       0.594200
      6 O4           7.8820     2.2470     2.2830 o          1 HP7      -0.572000
      7 C5           5.7070     2.0530     1.3690 cc         1 HP7      -0.421200
      8 C6           4.7900     1.2540     0.7230 cd         1 HP7       0.039600
      9 PA          -1.2470    -0.0040    -2.9030 p5         1 HP7       1.477800
     10 PB          -3.1580    -1.4830    -1.8320 p5         1 HP7       1.483800
     11 O'P         -3.7470    -2.0520     4.5610 o          1 HP7      -0.739000
     12 O'Q         -2.0610    -3.2160     4.0470 o          1 HP7      -0.739000
     13 C1          -3.9730    -0.6930     0.6040 c6         1 HP7       0.430300
     14 O1A         -1.6270    -0.4860    -4.2640 o          1 HP7      -0.858500
     15 O1B         -3.2060    -2.8140    -2.5070 o          1 HP7      -0.855000
     16 C1C          4.1840    -0.9650    -0.2900 c5         1 HP7       0.335700
     17 C9          -3.2880     0.7230     0.6930 c6         1 HP7       0.073700
     18 N2          -3.4180     1.5750    -0.5120 ns         1 HP7      -0.472900
     19 O2A         -1.6380     1.4110    -2.6440 o          1 HP7      -0.858500
     20 O2B         -4.1750    -0.5410    -2.3810 o          1 HP7      -0.855000
     21 C2C          3.2560    -1.5880     0.8240 c5         1 HP7       0.092300
     22 O2C          2.9990    -2.9830     0.6300 oh         1 HP7      -0.704000
     23 C3          -1.8330     0.5440     1.1990 c6         1 HP7       0.157300
     24 O3          -1.1440     1.8030     1.3040 oh         1 HP7      -0.678000
     25 O3A         -1.6830    -0.9500    -1.7320 os         1 HP7      -0.692800
     26 O3B         -3.3820    -1.6880    -0.2540 os         1 HP7      -0.630400
     27 C3C          1.9160    -0.8270     0.5900 c5         1 HP7       0.080300
     28 O3C          0.8110    -1.6220     1.0530 oh         1 HP7      -0.690000
     29 C10         -1.8350    -0.1610     2.5880 c6         1 HP7       0.128300
     30 O6          -0.4710    -0.3670     3.0180 oh         1 HP7      -0.807000
     31 C4C          1.9630    -0.6550    -0.9620 c5         1 HP7       0.155300
     32 O4C          3.3240    -0.2250    -1.1870 os         1 HP7      -0.403000
     33 C11         -2.6420    -1.4960     2.5180 c6         1 HP7       0.010300
     34 O5          -3.9740    -1.2530     1.9370 os         1 HP7      -0.434000
     35 C5C          0.9800     0.3900    -1.5590 c3         1 HP7       0.228600
     36 O5C          0.3430    -0.1790    -2.7120 os         1 HP7      -0.549400
     37 C12         -2.7040    -2.1800     3.9280 c          1 HP7       0.727000
     38 C7          -4.5370     2.2930    -0.8490 c          1 HP7       0.620100
     39 O7          -5.5340     2.3160    -0.1390 o          1 HP7      -0.712100
     40 C8          -4.4480     3.0780    -2.1550 c3         1 HP7      -0.163100
     41 H5           5.4870     3.0760     1.6510 ha         1 HP7       0.227000
     42 H6           3.7860     1.5640     0.4350 h4         1 HP7       0.259000
     43 H1          -5.0180    -0.5400     0.2920 h2         1 HP7       0.065700
     44 H1C          4.7440    -1.7390    -0.8310 h2         1 HP7       0.114700
     45 H2          -3.8190     1.2630     1.4900 h1         1 HP7       0.057700
     46 HN2         -2.6590     1.5950    -1.1970 hn         1 HP7       0.392500
     47 H2C          3.6450    -1.4100     1.8370 h1         1 HP7       0.044700
     48 HO2C         2.0170    -3.0280     0.7840 ho         1 HP7       0.521000
     49 H3          -1.3020    -0.1130     0.5010 h1         1 HP7       0.080700
     50 HO3         -0.4470     1.6420     1.9770 ho         1 HP7       0.425000
     51 H3C          1.9250     0.1510     1.0900 h1         1 HP7       0.044700
     52 HO3C         0.3610    -1.1190     1.7980 ho         1 HP7       0.494000
     53 H4          -2.3440     0.5020     3.3030 h1         1 HP7       0.013700
     54 HO4         -0.4650    -0.3120     4.0080 ho         1 HP7       0.563000
     55 H4C          1.8060    -1.6200    -1.4630 h1         1 HP7       0.106700
     56 H7          -2.1020    -2.1930     1.8620 h1         1 HP7       0.063700
     57 H5C          0.2460     0.6690    -0.7950 h1         1 HP7       0.016200
     58 H5CA         1.5280     1.2990    -1.8360 h1         1 HP7       0.016200
     59 H8          -3.5250     3.6700    -2.1600 hc         1 HP7       0.046033
     60 H8'A        -4.2790     2.3760    -2.9790 hc         1 HP7       0.046033
     61 H8'B        -5.3330     3.6980    -2.3380 hc         1 HP7       0.046033
     62 HN3          8.1850    -0.0730     1.5500 hn         1 HP7       0.321500
@<TRIPOS>BOND
     1     1     2 1   
     2     1     8 1   
     3     1    16 1   
     4     2     3 2   
     5     2     4 1   
     6     4     5 1   
     7     4    62 1   
     8     5     6 2   
     9     5     7 1   
    10     7     8 2   
    11     7    41 1   
    12     8    42 1   
    13     9    14 1   
    14     9    19 1   
    15     9    25 1   
    16     9    36 1   
    17    10    15 1   
    18    10    20 1   
    19    10    25 1   
    20    10    26 1   
    21    11    37 1   
    22    12    37 1   
    23    13    17 1   
    24    13    26 1   
    25    13    34 1   
    26    13    43 1   
    27    16    21 1   
    28    16    32 1   
    29    16    44 1   
    30    17    18 1   
    31    17    23 1   
    32    17    45 1   
    33    18    38 1   
    34    18    46 1   
    35    21    22 1   
    36    21    27 1   
    37    21    47 1   
    38    22    48 1   
    39    23    24 1   
    40    23    29 1   
    41    23    49 1   
    42    24    50 1   
    43    27    28 1   
    44    27    31 1   
    45    27    51 1   
    46    28    52 1   
    47    29    30 1   
    48    29    33 1   
    49    29    53 1   
    50    30    54 1   
    51    31    32 1   
    52    31    35 1   
    53    31    55 1   
    54    33    34 1   
    55    33    37 1   
    56    33    56 1   
    57    35    36 1   
    58    35    57 1   
    59    35    58 1   
    60    38    39 2   
    61    38    40 1   
    62    40    59 1   
    63    40    60 1   
    64    40    61 1   
@<TRIPOS>SUBSTRUCTURE
     1 HP7         1 TEMP              0 ****  ****    0 ROOT
