@<TRIPOS>MOLECULE
HP7
   62    64     1     0     0
SMALL
bcc


@<TRIPOS>ATOM
      1 N1           5.7800    -0.3550    -0.4590 n          1 HP7      -0.394000
      2 C2           7.0980    -0.7570    -0.4070 c          1 HP7       0.817500
      3 O2           7.5060    -1.5400     0.4270 o          1 HP7      -0.653500
      4 N3           7.9100    -0.2080    -1.3620 ns         1 HP7      -0.607500
      5 C4           7.5640     0.6980    -2.3540 c          1 HP7       0.736700
      6 O4           8.4020     1.1060    -3.1370 o          1 HP7      -0.647500
      7 C5           6.1700     1.0610    -2.3320 cc         1 HP7      -0.371200
      8 C6           5.3540     0.5250    -1.4080 cd         1 HP7       0.089600
      9 PA          -0.3950     1.0580    -0.8940 p5         1 HP7       1.477800
     10 PB          -2.5250    -0.4870    -2.2260 p5         1 HP7       1.483800
     11 O'P         -5.8620    -4.5280     0.3290 o          1 HP7      -0.844300
     12 O'Q         -4.9450    -4.5630     2.3590 o          1 HP7      -0.844300
     13 C1          -4.4970    -0.8280    -0.4520 c6         1 HP7       0.383900
     14 O1A         -0.0210     2.1610    -1.8270 o          1 HP7      -0.858500
     15 O1B         -2.4440    -1.6590    -3.1490 o          1 HP7      -0.855000
     16 C1C          4.8740    -0.9440     0.5520 c5         1 HP7       0.312500
     17 C9          -4.6240     0.1720     0.7090 c6         1 HP7       0.073700
     18 N2          -4.0080     1.4240     0.3600 ns         1 HP7      -0.539900
     19 O2A         -1.2170     1.3550     0.3330 o          1 HP7      -0.858500
     20 O2B         -3.1690     0.7920    -2.6480 o          1 HP7      -0.855000
     21 C2C          5.0200    -0.2560     1.9110 c5         1 HP7       0.069100
     22 O2C          4.7160    -1.2020     2.8990 oh         1 HP7      -0.581800
     23 C3          -4.0130    -0.4130     1.9740 c6         1 HP7       0.134100
     24 O3          -4.2520     0.4860     3.0330 oh         1 HP7      -0.615800
     25 O3A         -0.9860    -0.2290    -1.7070 os         1 HP7      -0.692800
     26 O3B         -3.1420    -0.9800    -0.7800 os         1 HP7      -0.607200
     27 C3C          3.9250     0.8130     1.8270 c5         1 HP7       0.057100
     28 O3C          3.4340     1.2160     3.0730 oh         1 HP7      -0.567800
     29 C10         -4.6360    -1.7760     2.2430 c6         1 HP7       0.105100
     30 O6          -4.0100    -2.3520     3.3600 oh         1 HP7      -0.684800
     31 C4C          2.8390     0.0830     1.0430 c5         1 HP7       0.132100
     32 O4C          3.5520    -0.7760     0.1510 os         1 HP7      -0.356600
     33 C11         -4.4960    -2.6820     1.0100 c6         1 HP7      -0.012900
     34 O5          -5.0530    -2.0620    -0.1300 os         1 HP7      -0.387600
     35 C5C          1.9330     1.0130     0.2770 c3         1 HP7       0.205400
     36 O5C          0.9620     0.2570    -0.4120 os         1 HP7      -0.526200
     37 C12         -5.1780    -4.0440     1.2340 c          1 HP7       0.937600
     38 C7          -4.6510     2.3640    -0.3450 c          1 HP7       0.687100
     39 O7          -5.8560     2.3350    -0.5830 o          1 HP7      -0.712100
     40 C8          -3.7920     3.5140    -0.8090 c3         1 HP7      -0.163100
     41 H5           5.7840     1.7520    -3.0650 ha         1 HP7       0.177000
     42 H6           4.3050     0.7700    -1.3930 h4         1 HP7       0.209000
     43 H1          -5.0720    -0.4550    -1.3050 h2         1 HP7       0.065700
     44 H1C          5.1170    -2.0060     0.6140 h2         1 HP7       0.114700
     45 H2          -5.6910     0.3380     0.8840 h1         1 HP7       0.057700
     46 HN2         -2.9820     1.4450     0.3650 hn         1 HP7       0.392500
     47 H2C          6.0170     0.1760     2.0550 h1         1 HP7       0.044700
     48 HO2C         4.3090    -0.7340     3.6390 ho         1 HP7       0.422000
     49 H3          -2.9320    -0.5480     1.8210 h1         1 HP7       0.080700
     50 HO3         -3.8270     0.1320     3.8210 ho         1 HP7       0.386000
     51 H3C          4.2940     1.6700     1.2460 h1         1 HP7       0.044700
     52 HO3C         3.9990     1.9130     3.4220 ho         1 HP7       0.395000
     53 H4          -5.7130    -1.6180     2.4290 h1         1 HP7       0.013700
     54 HO4         -4.2510    -3.3050     3.2830 ho         1 HP7       0.464000
     55 H4C          2.2370    -0.5280     1.7270 h1         1 HP7       0.106700
     56 H7          -3.4230    -2.8780     0.8580 h1         1 HP7       0.063700
     57 H5C          1.4770     1.6950     1.0060 h1         1 HP7       0.016200
     58 H5CA         2.5180     1.6300    -0.4160 h1         1 HP7       0.016200
     59 H8          -2.7410     3.3930    -0.5630 hc         1 HP7       0.046033
     60 H8'A        -3.8790     3.6030    -1.8910 hc         1 HP7       0.046033
     61 H8'B        -4.1570     4.4440    -0.3710 hc         1 HP7       0.046033
     62 HN3          8.8770    -0.5040    -1.3280 hn         1 HP7       0.321500
@<TRIPOS>BOND
     1     1     2 1   
     2     1     8 1   
     3     1    16 1   
     4     2     3 2   
     5     2     4 1   
     6     4     5 1   
     7     4    62 1   
     8     5     6 2   
     9     5     7 1   
    10     7     8 2   
    11     7    41 1   
    12     8    42 1   
    13     9    14 1   
    14     9    19 1   
    15     9    25 1   
    16     9    36 1   
    17    10    15 1   
    18    10    20 1   
    19    10    25 1   
    20    10    26 1   
    21    11    37 1   
    22    12    37 1   
    23    13    17 1   
    24    13    26 1   
    25    13    34 1   
    26    13    43 1   
    27    16    21 1   
    28    16    32 1   
    29    16    44 1   
    30    17    18 1   
    31    17    23 1   
    32    17    45 1   
    33    18    38 1   
    34    18    46 1   
    35    21    22 1   
    36    21    27 1   
    37    21    47 1   
    38    22    48 1   
    39    23    24 1   
    40    23    29 1   
    41    23    49 1   
    42    24    50 1   
    43    27    28 1   
    44    27    31 1   
    45    27    51 1   
    46    28    52 1   
    47    29    30 1   
    48    29    33 1   
    49    29    53 1   
    50    30    54 1   
    51    31    32 1   
    52    31    35 1   
    53    31    55 1   
    54    33    34 1   
    55    33    37 1   
    56    33    56 1   
    57    35    36 1   
    58    35    57 1   
    59    35    58 1   
    60    38    39 2   
    61    38    40 1   
    62    40    59 1   
    63    40    60 1   
    64    40    61 1   
@<TRIPOS>SUBSTRUCTURE
     1 HP7         1 TEMP              0 ****  ****    0 ROOT
