@<TRIPOS>MOLECULE
HP8
   51    54     1     0     0
SMALL
bcc


@<TRIPOS>ATOM
      1 S           -2.9800    -2.4320    -0.4250 s6         1 HP8       1.576100
      2 N1           4.7050     2.8050    -0.7560 nb         1 HP8      -0.823000
      3 C2           5.1790     1.5620    -0.7530 ca         1 HP8       0.713900
      4 N3           4.5250     0.4310    -0.5480 nb         1 HP8      -0.738000
      5 C4           3.2320     0.6450    -0.3310 ca         1 HP8       0.475800
      6 C5           2.5970     1.8760    -0.3110 ca         1 HP8      -0.224200
      7 C6           3.4010     3.0070    -0.5370 ca         1 HP8       0.783200
      8 N6           2.9140     4.2470    -0.5430 nv         1 HP8      -0.952500
      9 N7           1.2560     1.7160    -0.0790 nc         1 HP8      -0.597100
     10 C8           1.0890     0.4310     0.0440 cd         1 HP8       0.428700
     11 N9           2.2440    -0.2730    -0.0970 na         1 HP8      -0.255000
     12 O9          -2.4190     0.1350    -1.8650 o          1 HP8      -0.479100
     13 C1           2.3770    -1.7100    -0.0470 c5         1 HP8       0.262800
     14 C1S         -2.9310     1.5360     0.0110 ca         1 HP8      -0.173600
     15 C7           2.2940    -2.2850     1.3670 c5         1 HP8       0.056100
     16 O2           3.5540    -2.2610     1.9620 oh         1 HP8      -0.564800
     17 C21         -2.7350     0.2510    -0.7100 c          1 HP8       0.711700
     18 C2S         -2.0520     2.5950    -0.2250 ca         1 HP8       0.171100
     19 O2S         -1.0770     2.5070    -1.1450 oh         1 HP8      -0.526100
     20 C3           1.7370    -3.6840     1.0890 c5         1 HP8       0.086100
     21 O3           2.7390    -4.5370     0.6090 oh         1 HP8      -0.575800
     22 C3S         -2.1960     3.7770     0.5220 ca         1 HP8       0.081100
     23 O3S         -1.2860     4.7430     0.2960 oh         1 HP8      -0.487100
     24 C9           0.7670    -3.3920    -0.0510 c5         1 HP8       0.144100
     25 O4           1.3120    -2.2780    -0.7570 os         1 HP8      -0.375600
     26 C4S         -3.2370     3.9050     1.4280 ca         1 HP8      -0.184000
     27 C10         -0.6210    -3.0850     0.4710 c3         1 HP8       0.157400
     28 O5          -1.4510    -2.7940    -0.6700 os         1 HP8      -0.524500
     29 C5S         -4.1330     2.8600     1.6200 ca         1 HP8      -0.116000
     30 C6S         -3.9780     1.6750     0.9290 ca         1 HP8      -0.122000
     31 NHS         -2.9320    -0.8580     0.1090 ns         1 HP8      -0.701300
     32 OS1         -3.5850    -2.4990    -1.7240 o          1 HP8      -0.605300
     33 OS2         -3.4890    -3.1880     0.6910 o          1 HP8      -0.605300
     34 HN6          1.9450     4.4310    -0.3540 hn         1 HP8       0.454800
     35 HN6A         3.5230     5.0310    -0.7040 hn         1 HP8       0.454800
     36 H8           0.1410    -0.0500     0.2260 h5         1 HP8       0.066800
     37 H1           3.3440    -1.9490    -0.5010 h2         1 HP8       0.128700
     38 H2           1.5610    -1.7140     1.9520 h1         1 HP8       0.048700
     39 HO2          3.4500    -2.3270     2.9170 ho         1 HP8       0.418000
     40 HO2S        -0.1890     2.4500    -0.7120 ho         1 HP8       0.477000
     41 H3           1.2280    -4.1030     1.9670 h1         1 HP8       0.056700
     42 HO3          3.5110    -4.4400     1.1790 ho         1 HP8       0.428000
     43 HO3S        -1.4620     5.5050     0.8600 ho         1 HP8       0.425000
     44 H4           0.7060    -4.2420    -0.7360 h1         1 HP8       0.118700
     45 H4S         -3.3540     4.8270     1.9870 ha         1 HP8       0.134000
     46 H5          -1.0040    -3.9600     0.9970 h1         1 HP8       0.052200
     47 H5'A        -0.6200    -2.2360     1.1620 h1         1 HP8       0.052200
     48 H5S         -4.9510     2.9780     2.3170 ha         1 HP8       0.138000
     49 H6S         -4.6830     0.8690     1.0850 ha         1 HP8       0.137000
     50 HNHS        -3.1090    -0.7340     1.0990 hn         1 HP8       0.341500
     51 H7           6.2430     1.4700    -0.9410 h5         1 HP8       0.050100
@<TRIPOS>BOND
     1     1    28 1   
     2     1    31 1   
     3     1    32 2   
     4     1    33 2   
     5     2     3 ar  
     6     2     7 ar  
     7     3     4 ar  
     8     3    51 1   
     9     4     5 ar  
    10     5     6 ar  
    11     5    11 1   
    12     6     7 ar  
    13     6     9 1   
    14     7     8 1   
    15     8    34 1   
    16     8    35 1   
    17     9    10 2   
    18    10    11 1   
    19    10    36 1   
    20    11    13 1   
    21    12    17 2   
    22    13    15 1   
    23    13    25 1   
    24    13    37 1   
    25    14    17 1   
    26    14    18 ar  
    27    14    30 ar  
    28    15    16 1   
    29    15    20 1   
    30    15    38 1   
    31    16    39 1   
    32    17    31 1   
    33    18    19 1   
    34    18    22 ar  
    35    19    40 1   
    36    20    21 1   
    37    20    24 1   
    38    20    41 1   
    39    21    42 1   
    40    22    23 1   
    41    22    26 ar  
    42    23    43 1   
    43    24    25 1   
    44    24    27 1   
    45    24    44 1   
    46    26    29 ar  
    47    26    45 1   
    48    27    28 1   
    49    27    46 1   
    50    27    47 1   
    51    29    30 ar  
    52    29    48 1   
    53    30    49 1   
    54    31    50 1   
@<TRIPOS>SUBSTRUCTURE
     1 HP8         1 TEMP              0 ****  ****    0 ROOT
