@<TRIPOS>MOLECULE
HP8
   51    54     1     0     0
SMALL
No Charge or Current Charge


@<TRIPOS>ATOM
      1 S           -2.5630    -2.0020     1.2680 s6         1 HP8       1.434500
      2 N1           3.5530     2.3670     2.1970 nb         1 HP8      -0.297000
      3 C2           4.2100     1.2060     1.9670 ca         1 HP8       0.187900
      4 N3           3.7980     0.1840     1.1790 nb         1 HP8      -0.212000
      5 C4           2.6070     0.3530     0.5670 ca         1 HP8       0.147500
      6 C5           1.8660     1.4950     0.7290 ca         1 HP8      -0.093600
      7 C6           2.3770     2.5080     1.5670 ca         1 HP8       0.454900
      8 N6           1.7110     3.6720     1.7900 nv         1 HP8      -1.062900
      9 N7           0.6790     1.4670     0.0080 nc         1 HP8      -0.597100
     10 C8           0.7460     0.2660    -0.5950 cd         1 HP8       0.428700
     11 N9           1.9020    -0.4710    -0.2760 na         1 HP8      -0.284300
     12 O9          -3.3370    -0.3100    -1.1260 o          1 HP8      -0.479100
     13 C1           2.2730    -1.7860    -0.7990 c5         1 HP8       0.315300
     14 C1S         -2.6610     1.7820    -0.1320 ca         1 HP8      -0.173600
     15 C7           2.8900    -2.8050     0.2410 c5         1 HP8       0.079300
     16 O2           4.2990    -3.0600     0.0540 oh         1 HP8      -0.687000
     17 C21         -2.8370     0.2760    -0.1790 c          1 HP8       0.644700
     18 C2S         -2.5340     2.5550    -1.3140 ca         1 HP8       0.171100
     19 O2S         -2.5310     1.9860    -2.5560 oh         1 HP8      -0.565100
     20 C3           2.0670    -4.1050    -0.0090 c5         1 HP8       0.109300
     21 O3           2.7020    -4.8780    -1.0330 oh         1 HP8      -0.698000
     22 C3S         -2.3700     3.9570    -1.2440 ca         1 HP8       0.081100
     23 O3S         -2.2440     4.6890    -2.3970 oh         1 HP8      -0.526100
     24 C9           0.6980    -3.5060    -0.4510 c5         1 HP8       0.167300
     25 O4           1.0980    -2.4350    -1.3420 os         1 HP8      -0.422000
     26 C4S         -2.3320     4.6060    -0.0010 ca         1 HP8      -0.166000
     27 C10         -0.1760    -2.9740     0.7250 c3         1 HP8       0.180600
     28 O5          -1.4430    -2.5460     0.1950 os         1 HP8      -0.547700
     29 C5S         -2.4570     3.8550     1.1770 ca         1 HP8      -0.098000
     30 C6S         -2.6190     2.4610     1.1150 ca         1 HP8      -0.104000
     31 NHS         -2.4470    -0.3800     0.9450 ns         1 HP8      -0.634300
     32 OS1         -3.8860    -2.4740     0.8480 o          1 HP8      -0.534500
     33 OS2         -2.0800    -2.2140     2.6350 o          1 HP8      -0.534500
     34 HN6          0.7410     3.6960     1.4870 hn         1 HP8       0.510000
     35 HN6A         1.9460     4.2110     2.6180 hn         1 HP8       0.510000
     36 H8          -0.0030    -0.1340    -1.2690 h5         1 HP8       0.066800
     37 H1           2.9860    -1.5950    -1.6120 h2         1 HP8       0.128700
     38 H2           2.7070    -2.4530     1.2660 h1         1 HP8       0.048700
     39 HO2          4.7950    -2.3160     0.4740 ho         1 HP8       0.517000
     40 HO2S        -2.4200     2.7340    -3.1870 ho         1 HP8       0.516000
     41 H3           1.9700    -4.7000     0.9100 h1         1 HP8       0.056700
     42 HO3          3.6380    -4.5510    -0.9960 ho         1 HP8       0.527000
     43 HO3S        -2.1380     5.6360    -2.1600 ho         1 HP8       0.464000
     44 H4           0.1040    -4.2430    -1.0080 h1         1 HP8       0.118700
     45 H4S         -2.2080     5.6850     0.0590 ha         1 HP8       0.116000
     46 H5          -0.3150    -3.7930     1.4440 h1         1 HP8       0.052200
     47 H5'A         0.3350    -2.1520     1.2430 h1         1 HP8       0.052200
     48 H5S         -2.4340     4.3550     2.1430 ha         1 HP8       0.120000
     49 H6S         -2.7340     1.9210     2.0520 ha         1 HP8       0.119000
     50 HNHS        -1.9950     0.1170     1.6890 hn         1 HP8       0.341500
     51 H7           5.1680     1.0790     2.4690 h5         1 HP8       0.050100
@<TRIPOS>BOND
     1     1    28 1   
     2     1    31 1   
     3     1    32 2   
     4     1    33 2   
     5     2     3 ar  
     6     2     7 ar  
     7     3     4 ar  
     8     3    51 1   
     9     4     5 ar  
    10     5     6 ar  
    11     5    11 1   
    12     6     7 ar  
    13     6     9 1   
    14     7     8 1   
    15     8    34 1   
    16     8    35 1   
    17     9    10 2   
    18    10    11 1   
    19    10    36 1   
    20    11    13 1   
    21    12    17 2   
    22    13    15 1   
    23    13    25 1   
    24    13    37 1   
    25    14    17 1   
    26    14    18 ar  
    27    14    30 ar  
    28    15    16 1   
    29    15    20 1   
    30    15    38 1   
    31    16    39 1   
    32    17    31 1   
    33    18    19 1   
    34    18    22 ar  
    35    19    40 1   
    36    20    21 1   
    37    20    24 1   
    38    20    41 1   
    39    21    42 1   
    40    22    23 1   
    41    22    26 ar  
    42    23    43 1   
    43    24    25 1   
    44    24    27 1   
    45    24    44 1   
    46    26    29 ar  
    47    26    45 1   
    48    27    28 1   
    49    27    46 1   
    50    27    47 1   
    51    29    30 ar  
    52    29    48 1   
    53    30    49 1   
    54    31    50 1   
@<TRIPOS>SUBSTRUCTURE
     1 HP8         1 TEMP              0 ****  ****    0 ROOT
