@<TRIPOS>MOLECULE
HP9
   33    35     1     0     0
SMALL
No Charge or Current Charge


@<TRIPOS>ATOM
      1 CA          -3.7060   -10.6850   -28.8160 c3         1 HP9       0.024500
      2 CG          -4.2650    -9.7890   -26.4530 ca         1 HP9      -0.054300
      3 CE1         -4.9330    -7.6890   -25.4080 ca         1 HP9      -0.171000
      4 CE2         -2.9740    -8.8730   -24.5830 ca         1 HP9      -0.242600
      5 C           -4.1840    -9.3690   -29.5860 c          1 HP9       0.926600
      6 CB          -4.4990   -10.8850   -27.4930 c3         1 HP9      -0.002100
      7 CD1         -5.1420    -8.6900   -26.3730 ca         1 HP9      -0.041000
      8 CZ          -3.8540    -7.7800   -24.5170 ca         1 HP9       0.132100
      9 CD2         -3.1840    -9.8770   -25.5540 ca         1 HP9      -0.029000
     10 C10         -0.5780    -6.7210   -20.7790 ca         1 HP9       0.073900
     11 C11         -0.6650    -7.7910   -21.6850 ca         1 HP9      -0.084000
     12 C3          -1.8320    -8.9490   -23.6210 c          1 HP9       0.610300
     13 C6          -1.7070    -7.8260   -22.6400 ca         1 HP9      -0.213600
     14 C7          -2.6520    -6.7830   -22.6720 ca         1 HP9       0.168100
     15 C8          -2.5590    -5.7150   -21.7620 ca         1 HP9      -0.150000
     16 C9          -1.5210    -5.6820   -20.8130 ca         1 HP9      -0.122000
     17 F14          0.4190    -6.6920   -19.8690 f          1 HP9      -0.151900
     18 N           -2.2230   -10.8850   -28.5820 n8         1 HP9      -0.895800
     19 O12         -3.6790    -6.7830   -23.5860 os         1 HP9      -0.216200
     20 O13         -1.0390    -9.8840   -23.6320 o          1 HP9      -0.546100
     21 O           -3.3460    -8.5500   -29.9580 o          1 HP9      -0.833300
     22 HA          -3.9950   -11.5130   -29.4770 h1         1 HP9       0.003700
     23 HE1         -5.6110    -6.8410   -25.3500 ha         1 HP9       0.140000
     24 OXT         -5.3790    -9.2320   -29.8360 o          1 HP9      -0.833300
     25 HB2         -5.5680   -10.9570   -27.7250 hc         1 HP9       0.032200
     26 HB3         -4.2340   -11.8610   -27.0650 hc         1 HP9       0.032200
     27 HD1         -5.9850    -8.6110   -27.0570 ha         1 HP9       0.169000
     28 HD2         -2.5070   -10.7280   -25.6160 ha         1 HP9       0.151000
     29 H8           0.0770    -8.5870   -21.6430 ha         1 HP9       0.167000
     30 H9          -3.2940    -4.9140   -21.7960 ha         1 HP9       0.150000
     31 H10         -1.4470    -4.8570   -20.1080 ha         1 HP9       0.143000
     32 H           -2.0470   -11.8550   -28.3040 hn         1 HP9       0.332300
     33 H2          -1.7260   -10.7750   -29.4730 hn         1 HP9       0.332300
@<TRIPOS>BOND
     1     1     5 1   
     2     1     6 1   
     3     1    18 1   
     4     1    22 1   
     5     2     6 1   
     6     2     7 ar  
     7     2     9 ar  
     8     3     7 ar  
     9     3     8 ar  
    10     3    23 1   
    11     4     8 ar  
    12     4     9 ar  
    13     4    12 1   
    14     5    21 1   
    15     5    24 1   
    16     6    25 1   
    17     6    26 1   
    18     7    27 1   
    19     8    19 1   
    20     9    28 1   
    21    10    11 ar  
    22    10    16 ar  
    23    10    17 1   
    24    11    13 ar  
    25    11    29 1   
    26    12    13 1   
    27    12    20 2   
    28    13    14 ar  
    29    14    15 ar  
    30    14    19 1   
    31    15    16 ar  
    32    15    30 1   
    33    16    31 1   
    34    18    32 1   
    35    18    33 1   
@<TRIPOS>SUBSTRUCTURE
     1 HP9         1 TEMP              0 ****  ****    0 ROOT
