@<TRIPOS>MOLECULE
HP9
   33    35     1     0     0
SMALL
bcc


@<TRIPOS>ATOM
      1 CA          -3.7370   -10.7100   -28.7420 c3         1 HP9       0.024500
      2 CG          -4.2370    -9.8230   -26.4130 ca         1 HP9      -0.054300
      3 CE1         -4.8330    -7.6650   -25.4600 ca         1 HP9      -0.171000
      4 CE2         -2.9360    -8.8870   -24.5860 ca         1 HP9      -0.242600
      5 C           -4.1940    -9.4240   -29.4780 c          1 HP9       0.926600
      6 CB          -4.4890   -10.9090   -27.4160 c3         1 HP9      -0.002100
      7 CD1         -5.0530    -8.6820   -26.3660 ca         1 HP9      -0.041000
      8 CZ          -3.7720    -7.7720   -24.5670 ca         1 HP9       0.132100
      9 CD2         -3.1860    -9.9000   -25.5200 ca         1 HP9      -0.029000
     10 C10         -0.6730    -6.7930   -20.8410 ca         1 HP9       0.073900
     11 C11         -0.7340    -7.8490   -21.7100 ca         1 HP9      -0.084000
     12 C3          -1.8230    -8.9840   -23.6410 c          1 HP9       0.610300
     13 C6          -1.7270    -7.8640   -22.6950 ca         1 HP9      -0.213600
     14 C7          -2.6290    -6.8060   -22.7700 ca         1 HP9       0.168100
     15 C8          -2.5510    -5.7370   -21.8770 ca         1 HP9      -0.150000
     16 C9          -1.5700    -5.7310   -20.9100 ca         1 HP9      -0.122000
     17 F14          0.2740    -6.7690   -19.8920 f          1 HP9      -0.151900
     18 N           -2.3040   -10.7250   -28.5120 n8         1 HP9      -0.895800
     19 O12         -3.6080    -6.7560   -23.6920 os         1 HP9      -0.216200
     20 O13         -1.0340    -9.9140   -23.6280 o          1 HP9      -0.546100
     21 O           -3.3060    -8.6670   -29.9140 o          1 HP9      -0.833300
     22 HA          -4.0580   -11.5420   -29.3910 h1         1 HP9       0.003700
     23 HE1         -5.4750    -6.7940   -25.4340 ha         1 HP9       0.140000
     24 OXT         -5.4270    -9.2810   -29.6050 o          1 HP9      -0.833300
     25 HB2         -5.5570   -10.9830   -27.6220 hc         1 HP9       0.032200
     26 HB3         -4.1880   -11.8700   -26.9890 hc         1 HP9       0.032200
     27 HD1         -5.8770    -8.5960   -27.0610 ha         1 HP9       0.169000
     28 HD2         -2.5410   -10.7690   -25.5270 ha         1 HP9       0.151000
     29 H8          -0.0280    -8.6670   -21.6400 ha         1 HP9       0.167000
     30 H9          -3.2570    -4.9200   -21.9480 ha         1 HP9       0.150000
     31 H10         -1.4980    -4.9100   -20.2090 ha         1 HP9       0.143000
     32 H           -1.9640   -11.6770   -28.4940 hn         1 HP9       0.332300
     33 H2          -1.8490   -10.2540   -29.2820 hn         1 HP9       0.332300
@<TRIPOS>BOND
     1     1     5 1   
     2     1     6 1   
     3     1    18 1   
     4     1    22 1   
     5     2     6 1   
     6     2     7 ar  
     7     2     9 ar  
     8     3     7 ar  
     9     3     8 ar  
    10     3    23 1   
    11     4     8 ar  
    12     4     9 ar  
    13     4    12 1   
    14     5    21 1   
    15     5    24 1   
    16     6    25 1   
    17     6    26 1   
    18     7    27 1   
    19     8    19 1   
    20     9    28 1   
    21    10    11 ar  
    22    10    16 ar  
    23    10    17 1   
    24    11    13 ar  
    25    11    29 1   
    26    12    13 1   
    27    12    20 2   
    28    13    14 ar  
    29    14    15 ar  
    30    14    19 1   
    31    15    16 ar  
    32    15    30 1   
    33    16    31 1   
    34    18    32 1   
    35    18    33 1   
@<TRIPOS>SUBSTRUCTURE
     1 HP9         1 TEMP              0 ****  ****    0 ROOT
