@<TRIPOS>MOLECULE
HPA
   14    15     1     0     0
SMALL
bcc


@<TRIPOS>ATOM
      1 N1          26.0660    89.9530    73.2530 ns         1 HPA      -0.493400
      2 C2          25.0070    89.1320    73.0300 cc         1 HPA       0.482800
      3 N3          23.7690    89.4810    73.1000 nd         1 HPA      -0.638700
      4 C4          23.5840    90.7870    73.4280 cd         1 HPA       0.564300
      5 C5          24.6160    91.6780    73.6690 cc         1 HPA      -0.345200
      6 C6          25.9890    91.3010    73.5950 c          1 HPA       0.751100
      7 O6          26.9780    91.9850    73.7870 o          1 HPA      -0.617500
      8 N7          24.0080    92.8630    73.9600 na         1 HPA      -0.264900
      9 C8          22.6830    92.6430    73.8850 cc         1 HPA       0.437400
     10 N9          22.3850    91.4040    73.5670 nd         1 HPA      -0.648000
     11 HN1         26.9930    89.5560    73.1660 hn         1 HPA       0.331500
     12 H2          25.2690    88.1120    72.7760 h5         1 HPA       0.052800
     13 HN7         24.4560    93.7380    74.1840 hn         1 HPA       0.322700
     14 H8          21.9670    93.4280    74.0730 h5         1 HPA       0.063100
@<TRIPOS>BOND
     1     1     2 1   
     2     1     6 1   
     3     1    11 1   
     4     2     3 2   
     5     2    12 1   
     6     3     4 1   
     7     4     5 2   
     8     4    10 1   
     9     5     6 1   
    10     5     8 1   
    11     6     7 2   
    12     8     9 1   
    13     8    13 1   
    14     9    10 2   
    15     9    14 1   
@<TRIPOS>SUBSTRUCTURE
     1 HPA         1 TEMP              0 ****  ****    0 ROOT
