@<TRIPOS>MOLECULE
HPA
   14    15     1     0     0
SMALL
No Charge or Current Charge


@<TRIPOS>ATOM
      1 N1          26.0990    89.9370    73.2510 ns         1 HPA      -0.426400
      2 C2          25.0330    89.1070    73.0240 cc         1 HPA       0.482800
      3 N3          23.7540    89.4740    73.0980 nd         1 HPA      -0.638700
      4 C4          23.5570    90.8020    73.4310 cd         1 HPA       0.499000
      5 C5          24.6010    91.6520    73.6620 cc         1 HPA      -0.330600
      6 C6          25.9900    91.2390    73.5790 c          1 HPA       0.608600
      7 O6          26.9520    91.9620    73.7760 o          1 HPA      -0.542000
      8 N7          24.0070    92.8680    73.9610 na         1 HPA      -0.264500
      9 C8          22.6440    92.6870    73.8950 cc         1 HPA       0.437400
     10 N9          22.3520    91.4330    73.5730 nd         1 HPA      -0.648000
     11 HN1         27.0370    89.5700    73.1720 hn         1 HPA       0.331500
     12 H2          25.3380    88.0980    72.7740 h5         1 HPA       0.052800
     13 HN7         24.4690    93.7420    74.1900 hn         1 HPA       0.373000
     14 H8          21.9380    93.4880    74.0870 h5         1 HPA       0.063100
@<TRIPOS>BOND
     1     1     2 1   
     2     1     6 1   
     3     1    11 1   
     4     2     3 2   
     5     2    12 1   
     6     3     4 1   
     7     4     5 2   
     8     4    10 1   
     9     5     6 1   
    10     5     8 1   
    11     6     7 2   
    12     8     9 1   
    13     8    13 1   
    14     9    10 2   
    15     9    14 1   
@<TRIPOS>SUBSTRUCTURE
     1 HPA         1 TEMP              0 ****  ****    0 ROOT
