@<TRIPOS>MOLECULE
HPE
   25    25     1     0     0
SMALL
bcc


@<TRIPOS>ATOM
      1 N            5.1200    20.0280    15.4010 n8         1 HPE      -0.877800
      2 CA           4.0820    20.6520    16.2070 c3         1 HPE       0.019500
      3 C            2.7790    20.8190    15.3900 c          1 HPE       0.937600
      4 O            2.8960    20.9220    14.1530 o          1 HPE      -0.835800
      5 CB           4.4580    22.0220    16.7950 c3         1 HPE      -0.097400
      6 CG           5.6540    21.9790    17.7500 c3         1 HPE      -0.044100
      7 CD           5.9470    23.3310    18.3360 ca         1 HPE      -0.052300
      8 CE1          6.7610    24.2400    17.6630 ca         1 HPE      -0.128500
      9 CE2          5.3710    23.7280    19.5420 ca         1 HPE      -0.128500
     10 CZ1          6.9950    25.5080    18.1780 ca         1 HPE      -0.133500
     11 CZ2          5.6010    24.9940    20.0620 ca         1 HPE      -0.133500
     12 CH           6.4150    25.8910    19.3820 ca         1 HPE      -0.149000
     13 OXT          1.7220    20.8860    16.0500 o          1 HPE      -0.835800
     14 H            6.0130    20.0600    15.8780 hn         1 HPE       0.318800
     15 H2           5.2250    20.5590    14.5460 hn         1 HPE       0.318800
     16 HA           3.8650    19.9840    17.0500 h1         1 HPE       0.041700
     17 HB2          4.6730    22.7210    15.9780 hc         1 HPE       0.047700
     18 HB3          3.5970    22.4270    17.3340 hc         1 HPE       0.047700
     19 HG2          5.4450    21.2640    18.5500 hc         1 HPE       0.036700
     20 HG3          6.5400    21.6150    17.2230 hc         1 HPE       0.036700
     21 HE1          7.2220    23.9500    16.7250 ha         1 HPE       0.130500
     22 HE2          4.7350    23.0340    20.0800 ha         1 HPE       0.130500
     23 HZ1          7.6330    26.1980    17.6410 ha         1 HPE       0.117500
     24 HZ2          5.1470    25.2800    21.0030 ha         1 HPE       0.117500
     25 HH           6.5980    26.8780    19.7860 ha         1 HPE       0.115000
@<TRIPOS>BOND
     1     1     2 1   
     2     1    14 1   
     3     1    15 1   
     4     2     3 1   
     5     2     5 1   
     6     2    16 1   
     7     3     4 1   
     8     3    13 1   
     9     5     6 1   
    10     5    17 1   
    11     5    18 1   
    12     6     7 1   
    13     6    19 1   
    14     6    20 1   
    15     7     8 ar  
    16     7     9 ar  
    17     8    10 ar  
    18     8    21 1   
    19     9    11 ar  
    20     9    22 1   
    21    10    12 ar  
    22    10    23 1   
    23    11    12 ar  
    24    11    24 1   
    25    12    25 1   
@<TRIPOS>SUBSTRUCTURE
     1 HPE         1 TEMP              0 ****  ****    0 ROOT
