@<TRIPOS>MOLECULE
HPE
   25    25     1     0     0
SMALL
No Charge or Current Charge


@<TRIPOS>ATOM
      1 N            5.1870    20.0270    15.3960 n8         1 HPE      -0.877800
      2 CA           4.0440    20.6470    16.1660 c3         1 HPE       0.019500
      3 C            2.6360    20.7430    15.4250 c          1 HPE       0.937600
      4 O            2.5610    21.3660    14.3680 o          1 HPE      -0.835800
      5 CB           4.4700    22.0320    16.7260 c3         1 HPE      -0.097400
      6 CG           5.6280    21.9860    17.7520 c3         1 HPE      -0.044100
      7 CD           5.9310    23.3610    18.3340 ca         1 HPE      -0.052300
      8 CE1          6.8170    24.2330    17.6720 ca         1 HPE      -0.128500
      9 CE2          5.3220    23.7750    19.5350 ca         1 HPE      -0.128500
     10 CZ1          7.0950    25.5030    18.2060 ca         1 HPE      -0.133500
     11 CZ2          5.6000    25.0450    20.0700 ca         1 HPE      -0.133500
     12 CH           6.4860    25.9090    19.4060 ca         1 HPE      -0.149000
     13 OXT          1.6810    20.1280    15.8910 o          1 HPE      -0.835800
     14 H            6.0520    20.1340    15.9330 hn         1 HPE       0.318800
     15 H2           5.3420    20.5700    14.5400 hn         1 HPE       0.318800
     16 HA           3.8730    19.9970    17.0350 h1         1 HPE       0.041700
     17 HB2          4.7410    22.6980    15.8970 hc         1 HPE       0.047700
     18 HB3          3.6000    22.4880    17.2160 hc         1 HPE       0.047700
     19 HG2          5.3680    21.2870    18.5570 hc         1 HPE       0.036700
     20 HG3          6.5290    21.5810    17.2750 hc         1 HPE       0.036700
     21 HE1          7.2900    23.9250    16.7410 ha         1 HPE       0.130500
     22 HE2          4.6330    23.1120    20.0540 ha         1 HPE       0.130500
     23 HZ1          7.7810    26.1720    17.6900 ha         1 HPE       0.117500
     24 HZ2          5.1270    25.3590    20.9990 ha         1 HPE       0.117500
     25 HH           6.7010    26.8930    19.8200 ha         1 HPE       0.115000
@<TRIPOS>BOND
     1     1     2 1   
     2     1    14 1   
     3     1    15 1   
     4     2     3 1   
     5     2     5 1   
     6     2    16 1   
     7     3     4 1   
     8     3    13 1   
     9     5     6 1   
    10     5    17 1   
    11     5    18 1   
    12     6     7 1   
    13     6    19 1   
    14     6    20 1   
    15     7     8 ar  
    16     7     9 ar  
    17     8    10 ar  
    18     8    21 1   
    19     9    11 ar  
    20     9    22 1   
    21    10    12 ar  
    22    10    23 1   
    23    11    12 ar  
    24    11    24 1   
    25    12    25 1   
@<TRIPOS>SUBSTRUCTURE
     1 HPE         1 TEMP              0 ****  ****    0 ROOT
