@<TRIPOS>MOLECULE
HPH
   25    25     1     0     0
SMALL
bcc


@<TRIPOS>ATOM
      1 C          -12.4880    17.1900    28.3420 c3         1 HPH       0.354900
      2 O          -12.9400    17.0310    27.0410 oh         1 HPH      -0.613300
      3 CA         -12.4010    15.8140    29.0170 c3         1 HPH       0.132500
      4 N          -12.1000    16.0710    30.4190 n8         1 HPH      -0.921800
      5 CB         -13.7090    15.0240    28.9040 c3         1 HPH      -0.029100
      6 CG         -13.5960    13.6520    29.5100 ca         1 HPH      -0.091300
      7 CD1        -12.9060    12.6420    28.8390 ca         1 HPH      -0.128500
      8 CD2        -14.1520    13.3590    30.7530 ca         1 HPH      -0.128500
      9 CE1        -12.7750    11.3770    29.3920 ca         1 HPH      -0.128500
     10 CE2        -14.0240    12.0920    31.3120 ca         1 HPH      -0.128500
     11 CZ         -13.3340    11.0970    30.6340 ca         1 HPH      -0.129000
     12 OXT        -13.3570    18.0230    29.0570 oh         1 HPH      -0.613300
     13 HO         -12.7390    17.8260    26.5360 ho         1 HPH       0.433000
     14 HA         -11.6110    15.2430    28.5090 h1         1 HPH       0.037700
     15 H          -12.1790    15.2220    30.9660 hn         1 HPH       0.354800
     16 H2         -11.1410    16.3800    30.5220 hn         1 HPH       0.354800
     17 HB2        -14.5130    15.5820    29.3910 hc         1 HPH       0.071700
     18 HB3        -13.9750    14.9310    27.8510 hc         1 HPH       0.071700
     19 HD1        -12.4710    12.8500    27.8670 ha         1 HPH       0.132500
     20 HD2        -14.6980    14.1270    31.2880 ha         1 HPH       0.132500
     21 HE1        -12.2390    10.6060    28.8530 ha         1 HPH       0.130500
     22 HE2        -14.4660    11.8840    32.2780 ha         1 HPH       0.130500
     23 HZ         -13.2350    10.1100    31.0660 ha         1 HPH       0.131000
     24 HC         -11.4750    17.6300    28.3370 h2         1 HPH       0.009700
     25 HXT        -13.2510    17.7500    29.9840 ho         1 HPH       0.433000
@<TRIPOS>BOND
     1     1     2 1   
     2     1     3 1   
     3     1    12 1   
     4     1    24 1   
     5     2    13 1   
     6     3     4 1   
     7     3     5 1   
     8     3    14 1   
     9     4    15 1   
    10     4    16 1   
    11     5     6 1   
    12     5    17 1   
    13     5    18 1   
    14     6     7 ar  
    15     6     8 ar  
    16     7     9 ar  
    17     7    19 1   
    18     8    10 ar  
    19     8    20 1   
    20     9    11 ar  
    21     9    21 1   
    22    10    11 ar  
    23    10    22 1   
    24    11    23 1   
    25    12    25 1   
@<TRIPOS>SUBSTRUCTURE
     1 HPH         1 TEMP              0 ****  ****    0 ROOT
