@<TRIPOS>MOLECULE
HPH
   25    25     1     0     0
SMALL
No Charge or Current Charge


@<TRIPOS>ATOM
      1 C          -12.4910    17.2870    28.2820 c3         1 HPH       0.354900
      2 O          -13.4290    17.3510    27.2210 oh         1 HPH      -0.613300
      3 CA         -12.3940    15.8520    28.9320 c3         1 HPH       0.132500
      4 N          -12.0150    15.9470    30.3740 n8         1 HPH      -0.921800
      5 CB         -13.6830    14.9890    28.8060 c3         1 HPH      -0.029100
      6 CG         -13.5740    13.6260    29.4890 ca         1 HPH      -0.091300
      7 CD1        -12.7400    12.6270    28.9470 ca         1 HPH      -0.128500
      8 CD2        -14.3060    13.3520    30.6620 ca         1 HPH      -0.128500
      9 CE1        -12.6370    11.3720    29.5720 ca         1 HPH      -0.128500
     10 CE2        -14.2020    12.0970    31.2870 ca         1 HPH      -0.128500
     11 CZ         -13.3670    11.1070    30.7430 ca         1 HPH      -0.129000
     12 OXT        -12.9400    18.1690    29.2840 oh         1 HPH      -0.613300
     13 HO         -13.2220    18.1760    26.7360 ho         1 HPH       0.433000
     14 HA         -11.5900    15.3060    28.4210 h1         1 HPH       0.037700
     15 H          -12.1730    15.0270    30.8030 hn         1 HPH       0.354800
     16 H2         -11.0000    16.0780    30.4470 hn         1 HPH       0.354800
     17 HB2        -14.5320    15.5530    29.2110 hc         1 HPH       0.071700
     18 HB3        -13.9060    14.8320    27.7430 hc         1 HPH       0.071700
     19 HD1        -12.1720    12.8230    28.0400 ha         1 HPH       0.132500
     20 HD2        -14.9550    14.1130    31.0920 ha         1 HPH       0.132500
     21 HE1        -11.9900    10.6050    29.1490 ha         1 HPH       0.130500
     22 HE2        -14.7690    11.8930    32.1940 ha         1 HPH       0.130500
     23 HZ         -13.2870    10.1350    31.2270 ha         1 HPH       0.131000
     24 HC         -11.5060    17.6150    27.9290 h2         1 HPH       0.009700
     25 HXT        -12.8920    17.5790    30.0760 ho         1 HPH       0.433000
@<TRIPOS>BOND
     1     1     2 1   
     2     1     3 1   
     3     1    12 1   
     4     1    24 1   
     5     2    13 1   
     6     3     4 1   
     7     3     5 1   
     8     3    14 1   
     9     4    15 1   
    10     4    16 1   
    11     5     6 1   
    12     5    17 1   
    13     5    18 1   
    14     6     7 ar  
    15     6     8 ar  
    16     7     9 ar  
    17     7    19 1   
    18     8    10 ar  
    19     8    20 1   
    20     9    11 ar  
    21     9    21 1   
    22    10    11 ar  
    23    10    22 1   
    24    11    23 1   
    25    12    25 1   
@<TRIPOS>SUBSTRUCTURE
     1 HPH         1 TEMP              0 ****  ****    0 ROOT
