@<TRIPOS>MOLECULE
HPI
   57    58     1     0     0
SMALL
bcc


@<TRIPOS>ATOM
      1 C01         23.1090    25.8380    -2.6290 ca         1 HPI      -0.148000
      2 C02         22.1220    26.3570    -1.8010 ca         1 HPI      -0.135000
      3 C03         21.3470    27.4280    -2.2270 ca         1 HPI      -0.112000
      4 C04         21.5410    27.9960    -3.4830 ca         1 HPI      -0.056300
      5 C05         22.5380    27.4690    -4.3030 ca         1 HPI      -0.112000
      6 C06         23.3150    26.4000    -3.8830 ca         1 HPI      -0.135000
      7 C07         20.6810    29.1300    -3.9620 c3         1 HPI      -0.038100
      8 C08         19.5850    28.6900    -4.9470 c3         1 HPI       0.102500
      9 N09         18.7640    29.8320    -5.2910 n7         1 HPI      -0.814200
     10 C10         17.9620    29.6140    -6.4900 c3         1 HPI       0.017500
     11 C11         16.8080    30.6160    -6.4910 c3         1 HPI      -0.035400
     12 C12         15.7900    30.4080    -7.6150 c3         1 HPI      -0.038100
     13 C13         14.5650    31.2550    -7.4170 ca         1 HPI      -0.043300
     14 C14         14.3600    32.4190    -8.1530 ca         1 HPI      -0.129000
     15 C15         13.2360    33.2090    -7.9440 ca         1 HPI      -0.142500
     16 C16         12.2950    32.8440    -6.9910 ca         1 HPI      -0.161000
     17 C17         12.4880    31.6850    -6.2480 ca         1 HPI      -0.142500
     18 C18         13.6130    30.9010    -6.4610 ca         1 HPI      -0.129000
     19 C19         18.7860    29.7150    -7.7980 c          1 HPI       0.904600
     20 O20         19.6940    30.5710    -7.8050 o          1 HPI      -0.845800
     21 O21         18.4520    28.9650    -8.7360 o          1 HPI      -0.845800
     22 C22         18.7250    27.6020    -4.3040 c          1 HPI       0.670100
     23 O23         18.9100    26.4120    -4.5170 o          1 HPI      -0.630100
     24 N24         17.8070    28.0710    -3.4450 ns         1 HPI      -0.540900
     25 C25         16.8640    27.2210    -2.7690 c3         1 HPI       0.039700
     26 C26         15.7270    26.8150    -3.7180 c          1 HPI       0.651100
     27 O27         15.4940    27.4240    -4.7520 o          1 HPI      -0.651100
     28 N28         15.0280    25.7530    -3.2990 nt         1 HPI      -0.676000
     29 C29         16.3210    27.9280    -1.5240 c3         1 HPI      -0.221400
     30 C30         15.6720    27.0360    -0.4430 c          1 HPI       0.933600
     31 O31         15.7540    25.7910    -0.5790 o          1 HPI      -0.845800
     32 O32         15.1430    27.6420     0.5010 o          1 HPI      -0.845800
     33 H01         23.7140    25.0040    -2.2980 ha         1 HPI       0.107000
     34 H02         21.9560    25.9280    -0.8210 ha         1 HPI       0.115000
     35 H03         20.5770    27.8260    -1.5750 ha         1 HPI       0.137000
     36 H05         22.7090    27.9030    -5.2820 ha         1 HPI       0.137000
     37 H06         24.0850    26.0050    -4.5340 ha         1 HPI       0.115000
     38 H071        21.3020    29.8730    -4.4720 hc         1 HPI       0.049200
     39 H072        20.2150    29.6370    -3.1150 hc         1 HPI       0.049200
     40 H08         20.0780    28.2290    -5.8160 h1         1 HPI       0.069700
     41 H09         19.3700    30.6250    -5.4760 hn         1 HPI       0.364800
     42 H10         17.5220    28.6130    -6.4280 h1         1 HPI       0.073700
     43 H111        17.2020    31.6360    -6.5390 hc         1 HPI       0.027200
     44 H112        16.2940    30.5280    -5.5290 hc         1 HPI       0.027200
     45 H121        15.5020    29.3520    -7.6410 hc         1 HPI       0.066700
     46 H122        16.2390    30.6320    -8.5830 hc         1 HPI       0.066700
     47 H14         15.0890    32.7090    -8.9020 ha         1 HPI       0.142000
     48 H15         13.0950    34.1090    -8.5290 ha         1 HPI       0.111000
     49 H16         11.4180    33.4560    -6.8290 ha         1 HPI       0.104000
     50 H17         11.7590    31.3900    -5.5050 ha         1 HPI       0.111000
     51 H18         13.7560    29.9970    -5.8780 ha         1 HPI       0.142000
     52 H24         17.6320    29.0660    -3.4890 hn         1 HPI       0.331500
     53 H25         17.3890    26.3180    -2.4500 h1         1 HPI       0.096700
     54 H281        14.1810    25.4920    -3.7770 hn         1 HPI       0.319500
     55 H282        15.1820    25.4260    -2.3470 hn         1 HPI       0.319500
     56 H291        15.6170    28.7170    -1.8100 hc         1 HPI       0.035700
     57 H292        17.1600    28.4450    -1.0470 hc         1 HPI       0.035700
@<TRIPOS>BOND
     1     1     2 ar  
     2     1     6 ar  
     3     1    33 1   
     4     2     3 ar  
     5     2    34 1   
     6     3     4 ar  
     7     3    35 1   
     8     4     5 ar  
     9     4     7 1   
    10     5     6 ar  
    11     5    36 1   
    12     6    37 1   
    13     7     8 1   
    14     7    38 1   
    15     7    39 1   
    16     8     9 1   
    17     8    22 1   
    18     8    40 1   
    19     9    10 1   
    20     9    41 1   
    21    10    11 1   
    22    10    19 1   
    23    10    42 1   
    24    11    12 1   
    25    11    43 1   
    26    11    44 1   
    27    12    13 1   
    28    12    45 1   
    29    12    46 1   
    30    13    14 ar  
    31    13    18 ar  
    32    14    15 ar  
    33    14    47 1   
    34    15    16 ar  
    35    15    48 1   
    36    16    17 ar  
    37    16    49 1   
    38    17    18 ar  
    39    17    50 1   
    40    18    51 1   
    41    19    20 1   
    42    19    21 1   
    43    22    23 2   
    44    22    24 1   
    45    24    25 1   
    46    24    52 1   
    47    25    26 1   
    48    25    29 1   
    49    25    53 1   
    50    26    27 2   
    51    26    28 1   
    52    28    54 1   
    53    28    55 1   
    54    29    30 1   
    55    29    56 1   
    56    29    57 1   
    57    30    31 1   
    58    30    32 1   
@<TRIPOS>SUBSTRUCTURE
     1 HPI         1 TEMP              0 ****  ****    0 ROOT
