@<TRIPOS>MOLECULE
HPI
   57    58     1     0     0
SMALL
No Charge or Current Charge


@<TRIPOS>ATOM
      1 C01         23.5000    26.3040    -2.5520 ca         1 HPI      -0.130000
      2 C02         22.4640    26.6660    -1.6750 ca         1 HPI      -0.117000
      3 C03         21.5020    27.6100    -2.0740 ca         1 HPI      -0.094000
      4 C04         21.5700    28.1980    -3.3530 ca         1 HPI      -0.056300
      5 C05         22.6120    27.8310    -4.2280 ca         1 HPI      -0.094000
      6 C06         23.5740    26.8870    -3.8280 ca         1 HPI      -0.117000
      7 C07         20.5290    29.2220    -3.7890 c3         1 HPI      -0.038100
      8 C08         19.4960    28.6530    -4.7920 c3         1 HPI       0.102500
      9 N09         18.6310    29.7830    -5.2810 n7         1 HPI      -0.869400
     10 C10         17.7010    29.4580    -6.4210 c3         1 HPI       0.017500
     11 C11         16.6660    30.6030    -6.5590 c3         1 HPI      -0.035400
     12 C12         15.5310    30.3030    -7.5650 c3         1 HPI      -0.038100
     13 C13         14.4890    31.4140    -7.6030 ca         1 HPI      -0.043300
     14 C14         14.5450    32.4110    -8.5970 ca         1 HPI      -0.111000
     15 C15         13.5830    33.4360    -8.6280 ca         1 HPI      -0.124500
     16 C16         12.5610    33.4700    -7.6650 ca         1 HPI      -0.143000
     17 C17         12.5010    32.4800    -6.6700 ca         1 HPI      -0.124500
     18 C18         13.4630    31.4550    -6.6390 ca         1 HPI      -0.111000
     19 C19         18.4260    29.1590    -7.7920 c          1 HPI       0.694000
     20 O20         19.2050    29.9930    -8.2380 o          1 HPI      -0.740500
     21 O21         18.2480    28.0680    -8.3150 o          1 HPI      -0.740500
     22 C22         18.6960    27.4670    -4.1480 c          1 HPI       0.603100
     23 O23         19.0450    26.2940    -4.2220 o          1 HPI      -0.630100
     24 N24         17.5190    27.8450    -3.5420 ns         1 HPI      -0.473900
     25 C25         16.5620    26.9500    -2.8580 c3         1 HPI       0.039700
     26 C26         15.1290    27.5800    -2.9030 c          1 HPI       0.584100
     27 O27         14.8500    28.5910    -3.5300 o          1 HPI      -0.651100
     28 N28         14.1600    26.9570    -2.2010 nt         1 HPI      -0.609000
     29 C29         17.0560    26.5960    -1.4210 c3         1 HPI      -0.221400
     30 C30         16.5800    25.1890    -1.0300 c          1 HPI       0.723000
     31 O31         17.2820    24.2360    -1.3270 o          1 HPI      -0.740500
     32 O32         15.4820    25.0830    -0.5080 o          1 HPI      -0.740500
     33 H01         24.2440    25.5730    -2.2430 ha         1 HPI       0.089000
     34 H02         22.4050    26.2150    -0.6880 ha         1 HPI       0.097000
     35 H03         20.7020    27.8820    -1.3890 ha         1 HPI       0.119000
     36 H05         22.6770    28.2780    -5.2170 ha         1 HPI       0.119000
     37 H06         24.3760    26.6070    -4.5080 ha         1 HPI       0.097000
     38 H071        21.0400    30.0770    -4.2480 hc         1 HPI       0.049200
     39 H072        19.9980    29.6220    -2.9160 hc         1 HPI       0.049200
     40 H08         20.0540    28.2240    -5.6370 h1         1 HPI       0.069700
     41 H09         19.2480    30.5390    -5.6070 hn         1 HPI       0.420000
     42 H10         17.1310    28.5510    -6.1780 h1         1 HPI       0.073700
     43 H111        17.1760    31.5270    -6.8560 hc         1 HPI       0.027200
     44 H112        16.2150    30.7930    -5.5760 hc         1 HPI       0.027200
     45 H121        15.0510    29.3550    -7.2910 hc         1 HPI       0.066700
     46 H122        15.9560    30.1520    -8.5640 hc         1 HPI       0.066700
     47 H14         15.3350    32.3930    -9.3450 ha         1 HPI       0.124000
     48 H15         13.6310    34.2030    -9.3970 ha         1 HPI       0.093000
     49 H16         11.8170    34.2630    -7.6890 ha         1 HPI       0.086000
     50 H17         11.7110    32.5070    -5.9230 ha         1 HPI       0.093000
     51 H18         13.4130    30.6930    -5.8640 ha         1 HPI       0.124000
     52 H24         17.2800    28.8270    -3.6530 hn         1 HPI       0.331500
     53 H25         16.5030    26.0220    -3.4420 h1         1 HPI       0.096700
     54 H281        13.2270    27.3400    -2.1940 hn         1 HPI       0.319500
     55 H282        14.3990    26.1610    -1.6170 hn         1 HPI       0.319500
     56 H291        16.6400    27.3560    -0.7490 hc         1 HPI       0.035700
     57 H292        18.1520    26.6010    -1.4540 hc         1 HPI       0.035700
@<TRIPOS>BOND
     1     1     2 ar  
     2     1     6 ar  
     3     1    33 1   
     4     2     3 ar  
     5     2    34 1   
     6     3     4 ar  
     7     3    35 1   
     8     4     5 ar  
     9     4     7 1   
    10     5     6 ar  
    11     5    36 1   
    12     6    37 1   
    13     7     8 1   
    14     7    38 1   
    15     7    39 1   
    16     8     9 1   
    17     8    22 1   
    18     8    40 1   
    19     9    10 1   
    20     9    41 1   
    21    10    11 1   
    22    10    19 1   
    23    10    42 1   
    24    11    12 1   
    25    11    43 1   
    26    11    44 1   
    27    12    13 1   
    28    12    45 1   
    29    12    46 1   
    30    13    14 ar  
    31    13    18 ar  
    32    14    15 ar  
    33    14    47 1   
    34    15    16 ar  
    35    15    48 1   
    36    16    17 ar  
    37    16    49 1   
    38    17    18 ar  
    39    17    50 1   
    40    18    51 1   
    41    19    20 1   
    42    19    21 1   
    43    22    23 2   
    44    22    24 1   
    45    24    25 1   
    46    24    52 1   
    47    25    26 1   
    48    25    29 1   
    49    25    53 1   
    50    26    27 2   
    51    26    28 1   
    52    28    54 1   
    53    28    55 1   
    54    29    30 1   
    55    29    56 1   
    56    29    57 1   
    57    30    31 1   
    58    30    32 1   
@<TRIPOS>SUBSTRUCTURE
     1 HPI         1 TEMP              0 ****  ****    0 ROOT
