@<TRIPOS>MOLECULE
HPJ
   49    52     1     0     0
SMALL
No Charge or Current Charge


@<TRIPOS>ATOM
      1 C4          -5.3410     0.9370    -0.1290 c3         1 HPJ      -0.104400
      2 C14          0.1240    -1.1420     0.0830 ca         1 HPJ      -0.167800
      3 C5          -5.0090    -0.4090     0.5460 c3         1 HPJ       0.081600
      4 C11         -2.6320    -1.0190     0.0580 ca         1 HPJ       0.378500
      5 C7          -4.2380    -2.1290    -1.2100 cc         1 HPJ      -0.150100
      6 C8          -2.9730    -2.5500    -1.5800 cd         1 HPJ      -0.223200
      7 C9          -1.9710    -1.8680    -0.8000 ca         1 HPJ      -0.142800
      8 C10         -0.5770    -1.9640    -0.8230 ca         1 HPJ       0.026000
      9 C13         -0.6250    -0.2920     0.9340 ca         1 HPJ       0.382900
     10 C3          -6.4030     1.7390     0.6420 c3         1 HPJ       0.162600
     11 C1          -7.6090     3.8290     0.5210 c3         1 HPJ       0.146900
     12 O2          -6.6330     2.9600    -0.0780 os         1 HPJ      -0.451000
     13 N6          -3.9960    -1.1810    -0.1920 na         1 HPJ      -0.189400
     14 N12         -1.9810    -0.2230     0.9320 nb         1 HPJ      -0.683000
     15 C15          1.5870    -1.1500     0.1410 cc         1 HPJ       0.172400
     16 C16          2.2050     0.0770     0.0090 cd         1 HPJ      -0.300000
     17 N17          2.3000    -2.3380     0.2610 n          1 HPJ      -0.122500
     18 O18          1.6210    -3.6060     0.4390 oh         1 HPJ      -0.445100
     19 C20          3.7100    -2.3460     0.2510 c          1 HPJ       0.537200
     20 O21          4.3740    -3.3700     0.3630 o          1 HPJ      -0.589000
     21 C22          4.3310    -1.0240     0.1120 cc         1 HPJ      -0.329200
     22 C23          3.6480     0.1780     0.0150 cd         1 HPJ       0.093800
     23 C24          4.3510     1.4810    -0.1630 ca         1 HPJ      -0.067800
     24 C25          5.7130     1.5400    -0.5540 ca         1 HPJ      -0.087500
     25 C26          6.3680     2.7730    -0.7200 ca         1 HPJ      -0.113000
     26 C27          5.6810     3.9740    -0.4980 ca         1 HPJ      -0.097000
     27 C28          4.3350     3.9390    -0.1080 ca         1 HPJ      -0.113000
     28 C29          3.6770     2.7080     0.0570 ca         1 HPJ      -0.087500
     29 H1          -4.4260     1.5360    -0.2090 hc         1 HPJ       0.067700
     30 H2          -5.7000     0.7500    -1.1490 hc         1 HPJ       0.067700
     31 H3          -4.6490    -0.2290     1.5680 h1         1 HPJ       0.063700
     32 H4          -5.9220    -1.0140     0.6190 h1         1 HPJ       0.063700
     33 H5          -5.2290    -2.4040    -1.5610 h4         1 HPJ       0.217000
     34 H6          -2.7720    -3.2910    -2.3530 ha         1 HPJ       0.212000
     35 H7          -0.0650    -2.6320    -1.5120 ha         1 HPJ       0.134000
     36 H8          -0.1190     0.3560     1.6490 h4         1 HPJ       0.024100
     37 H9          -7.3280     1.1510     0.7140 h1         1 HPJ       0.020700
     38 H10         -6.0420     1.9480     1.6570 h1         1 HPJ       0.020700
     39 H11         -7.7310     4.7380    -0.0810 h1         1 HPJ       0.029700
     40 H12         -8.5850     3.3310     0.5900 h1         1 HPJ       0.029700
     41 H13         -7.2990     4.1270     1.5310 h1         1 HPJ       0.029700
     42 H14          1.5910     0.9580    -0.1330 ha         1 HPJ       0.208000
     43 H15          1.5940    -3.7370     1.4140 ho         1 HPJ       0.495000
     44 H16          5.4100    -1.0720     0.1310 ha         1 HPJ       0.215000
     45 H17          6.2790     0.6390    -0.7620 ha         1 HPJ       0.117500
     46 H18          7.4110     2.7950    -1.0280 ha         1 HPJ       0.116000
     47 H19          6.1890     4.9270    -0.6260 ha         1 HPJ       0.115000
     48 H20          3.7990     4.8680     0.0730 ha         1 HPJ       0.116000
     49 H21          2.6430     2.7290     0.3870 ha         1 HPJ       0.117500
@<TRIPOS>BOND
     1     1     3 1   
     2     1    10 1   
     3     1    29 1   
     4     1    30 1   
     5     2     8 ar  
     6     2     9 ar  
     7     2    15 1   
     8     3    13 1   
     9     3    31 1   
    10     3    32 1   
    11     4     7 ar  
    12     4    13 1   
    13     4    14 ar  
    14     5     6 2   
    15     5    13 1   
    16     5    33 1   
    17     6     7 1   
    18     6    34 1   
    19     7     8 ar  
    20     8    35 1   
    21     9    14 ar  
    22     9    36 1   
    23    10    12 1   
    24    10    37 1   
    25    10    38 1   
    26    11    12 1   
    27    11    39 1   
    28    11    40 1   
    29    11    41 1   
    30    15    16 2   
    31    15    17 1   
    32    16    22 1   
    33    16    42 1   
    34    17    18 1   
    35    17    19 1   
    36    18    43 1   
    37    19    20 2   
    38    19    21 1   
    39    21    22 2   
    40    21    44 1   
    41    22    23 1   
    42    23    24 ar  
    43    23    28 ar  
    44    24    25 ar  
    45    24    45 1   
    46    25    26 ar  
    47    25    46 1   
    48    26    27 ar  
    49    26    47 1   
    50    27    28 ar  
    51    27    48 1   
    52    28    49 1   
@<TRIPOS>SUBSTRUCTURE
     1 HPJ         1 TEMP              0 ****  ****    0 ROOT
