@<TRIPOS>MOLECULE
HPJ
   49    52     1     0     0
SMALL
abcg2


@<TRIPOS>ATOM
      1 C4          -5.2100     0.9380    -0.1910 c3         1 HPJ      -0.104400
      2 C14          0.0360    -1.1710     0.0700 ca         1 HPJ      -0.167800
      3 C5          -4.9790    -0.3620     0.5690 c3         1 HPJ       0.081600
      4 C11         -2.6410    -1.0820     0.0800 ca         1 HPJ       0.378500
      5 C7          -4.2310    -2.1740    -1.0040 cc         1 HPJ      -0.150100
      6 C8          -3.0630    -2.7050    -1.4640 cd         1 HPJ      -0.223200
      7 C9          -2.0160    -2.0180    -0.7790 ca         1 HPJ      -0.142800
      8 C10         -0.6290    -2.0570    -0.7720 ca         1 HPJ       0.026000
      9 C13         -0.7090    -0.2890     0.8720 ca         1 HPJ       0.382900
     10 C3          -6.2330     1.8030     0.5190 c3         1 HPJ       0.162600
     11 C1          -7.3880     3.8290     0.3610 c3         1 HPJ       0.146900
     12 O2          -6.4470     2.9710    -0.2320 os         1 HPJ      -0.451000
     13 N6          -3.9870    -1.2020    -0.0670 na         1 HPJ      -0.189400
     14 N12         -2.0280    -0.2330     0.8880 nb         1 HPJ      -0.683000
     15 C15          1.5030    -1.0700     0.1150 cc         1 HPJ       0.172400
     16 C16          2.1540     0.1280    -0.0240 cd         1 HPJ      -0.300000
     17 N17          2.2520    -2.1780     0.2950 n          1 HPJ      -0.122500
     18 O18          1.6290    -3.3640     0.4980 oh         1 HPJ      -0.445100
     19 C20          3.6380    -2.2260     0.3490 c          1 HPJ       0.537200
     20 O21          4.1560    -3.3330     0.5390 o          1 HPJ      -0.589000
     21 C22          4.2790    -0.9700     0.1990 cc         1 HPJ      -0.329200
     22 C23          3.5620     0.1880     0.0220 cd         1 HPJ       0.093800
     23 C24          4.2460     1.4870    -0.1290 ca         1 HPJ      -0.067800
     24 C25          5.4650     1.5790    -0.8020 ca         1 HPJ      -0.087500
     25 C26          6.1050     2.8010    -0.9390 ca         1 HPJ      -0.113000
     26 C27          5.5380     3.9500    -0.4020 ca         1 HPJ      -0.097000
     27 C28          4.3260     3.8700     0.2700 ca         1 HPJ      -0.113000
     28 C29          3.6830     2.6480     0.4020 ca         1 HPJ      -0.087500
     29 H1          -4.2660     1.4810    -0.2800 hc         1 HPJ       0.067700
     30 H2          -5.5570     0.7100    -1.2020 hc         1 HPJ       0.067700
     31 H3          -4.6460    -0.1590     1.5880 h1         1 HPJ       0.063700
     32 H4          -5.9030    -0.9370     0.6410 h1         1 HPJ       0.063700
     33 H5          -5.2470    -2.4210    -1.2700 h4         1 HPJ       0.217000
     34 H6          -2.9660    -3.4920    -2.1940 ha         1 HPJ       0.212000
     35 H7          -0.0900    -2.7380    -1.4180 ha         1 HPJ       0.134000
     36 H8          -0.1900     0.3930     1.5360 h4         1 HPJ       0.024100
     37 H9          -7.1740     1.2460     0.6460 h1         1 HPJ       0.020700
     38 H10         -5.8770     2.0500     1.5300 h1         1 HPJ       0.020700
     39 H11         -7.5130     4.6950    -0.2880 h1         1 HPJ       0.029700
     40 H12         -8.3650     3.3450     0.4830 h1         1 HPJ       0.029700
     41 H13         -7.0620     4.1790     1.3470 h1         1 HPJ       0.029700
     42 H14          1.5650     1.0120    -0.2170 ha         1 HPJ       0.208000
     43 H15          2.3890    -3.9740     0.6160 ho         1 HPJ       0.495000
     44 H16          5.3590    -0.9620     0.2610 ha         1 HPJ       0.215000
     45 H17          5.9070     0.6950    -1.2440 ha         1 HPJ       0.117500
     46 H18          7.0440     2.8570    -1.4740 ha         1 HPJ       0.116000
     47 H19          6.0380     4.9040    -0.5110 ha         1 HPJ       0.115000
     48 H20          3.8800     4.7590     0.6940 ha         1 HPJ       0.116000
     49 H21          2.7450     2.5990     0.9430 ha         1 HPJ       0.117500
@<TRIPOS>BOND
     1     1     3 1   
     2     1    10 1   
     3     1    29 1   
     4     1    30 1   
     5     2     8 ar  
     6     2     9 ar  
     7     2    15 1   
     8     3    13 1   
     9     3    31 1   
    10     3    32 1   
    11     4     7 ar  
    12     4    13 1   
    13     4    14 ar  
    14     5     6 2   
    15     5    13 1   
    16     5    33 1   
    17     6     7 1   
    18     6    34 1   
    19     7     8 ar  
    20     8    35 1   
    21     9    14 ar  
    22     9    36 1   
    23    10    12 1   
    24    10    37 1   
    25    10    38 1   
    26    11    12 1   
    27    11    39 1   
    28    11    40 1   
    29    11    41 1   
    30    15    16 2   
    31    15    17 1   
    32    16    22 1   
    33    16    42 1   
    34    17    18 1   
    35    17    19 1   
    36    18    43 1   
    37    19    20 2   
    38    19    21 1   
    39    21    22 2   
    40    21    44 1   
    41    22    23 1   
    42    23    24 ar  
    43    23    28 ar  
    44    24    25 ar  
    45    24    45 1   
    46    25    26 ar  
    47    25    46 1   
    48    26    27 ar  
    49    26    47 1   
    50    27    28 ar  
    51    27    48 1   
    52    28    49 1   
@<TRIPOS>SUBSTRUCTURE
     1 HPJ         1 TEMP              0 ****  ****    0 ROOT
