@<TRIPOS>MOLECULE
HPK
   25    25     1     0     0
SMALL
No Charge or Current Charge


@<TRIPOS>ATOM
      1 CB3          3.9480    -1.7430    -0.0720 ca         1 HPK      -0.130000
      2 CB4          4.5380    -1.0680    -1.1520 ca         1 HPK      -0.096000
      3 CB5          4.1700     0.2570    -1.4320 ca         1 HPK      -0.130000
      4 CB6          3.2080     0.9040    -0.6380 ca         1 HPK      -0.066500
      5 CB1          2.5950     0.2320     0.4440 ca         1 HPK      -0.164600
      6 CB2          2.9840    -1.1000     0.7250 ca         1 HPK      -0.066500
      7 CA6          1.5660     0.9620     1.2810 c          1 HPK       0.575700
      8 OA4          1.6640     2.1710     1.4610 o          1 HPK      -0.508100
      9 CA5          0.3860     0.1880     1.9090 c3         1 HPK      -0.134200
     10 CA4         -0.9440     0.5420     1.2630 c2         1 HPK      -0.229200
     11 CA3         -1.5810    -0.1980     0.3240 ce         1 HPK      -0.239200
     12 CA2         -2.8990     0.1760    -0.3040 c          1 HPK       0.412300
     13 OA3         -3.4840     1.2130     0.0230 o          1 HPK      -0.551100
     14 CA1         -3.4990    -0.8480    -1.4150 c          1 HPK       0.651000
     15 OA2         -2.7450    -1.6720    -1.9280 o          1 HPK      -0.698000
     16 OA1         -4.6890    -0.7610    -1.7120 o          1 HPK      -0.698000
     17 HB3          4.2410    -2.7660     0.1530 ha         1 HPK       0.109000
     18 HB4          5.2830    -1.5690    -1.7670 ha         1 HPK       0.105000
     19 HB5          4.6290     0.7830    -2.2650 ha         1 HPK       0.109000
     20 HB6          2.9330     1.9320    -0.8700 ha         1 HPK       0.126000
     21 HB2          2.5650    -1.6410     1.5690 ha         1 HPK       0.126000
     22 HA51         0.5400    -0.8910     1.8230 hc         1 HPK       0.057700
     23 HA52         0.3410     0.4480     2.9740 hc         1 HPK       0.057700
     24 HA4         -1.3770     1.4830     1.6160 ha         1 HPK       0.185000
     25 HA3         -1.1450    -1.1330    -0.0270 ha         1 HPK       0.196000
@<TRIPOS>BOND
     1     1     2 ar  
     2     1     6 ar  
     3     1    17 1   
     4     2     3 ar  
     5     2    18 1   
     6     3     4 ar  
     7     3    19 1   
     8     4     5 ar  
     9     4    20 1   
    10     5     6 ar  
    11     5     7 1   
    12     6    21 1   
    13     7     8 2   
    14     7     9 1   
    15     9    10 1   
    16     9    22 1   
    17     9    23 1   
    18    10    11 2   
    19    10    24 1   
    20    11    12 1   
    21    11    25 1   
    22    12    13 2   
    23    12    14 1   
    24    14    15 1   
    25    14    16 1   
@<TRIPOS>SUBSTRUCTURE
     1 HPK         1 TEMP              0 ****  ****    0 ROOT
