@<TRIPOS>MOLECULE
HPK
   25    25     1     0     0
SMALL
abcg2


@<TRIPOS>ATOM
      1 CB3          4.5280    -1.4580     0.4270 ca         1 HPK      -0.130000
      2 CB4          5.4430    -0.6280    -0.2050 ca         1 HPK      -0.096000
      3 CB5          5.0220     0.5770    -0.7550 ca         1 HPK      -0.130000
      4 CB6          3.6920     0.9510    -0.6710 ca         1 HPK      -0.066500
      5 CB1          2.7630     0.1230    -0.0370 ca         1 HPK      -0.164600
      6 CB2          3.1940    -1.0860     0.5100 ca         1 HPK      -0.066500
      7 CA6          1.3410     0.5570     0.0310 c          1 HPK       0.575700
      8 OA4          0.9910     1.6240    -0.4270 o          1 HPK      -0.508100
      9 CA5          0.3390    -0.3750     0.6780 c3         1 HPK      -0.134200
     10 CA4         -1.0270     0.2130     0.7500 c2         1 HPK      -0.229200
     11 CA3         -2.0990    -0.3260     0.1700 ce         1 HPK      -0.239200
     12 CA2         -3.4440     0.2780     0.2990 c          1 HPK       0.412300
     13 OA3         -3.6350     1.3000     0.9250 o          1 HPK      -0.551100
     14 CA1         -4.6260    -0.4490    -0.4050 c          1 HPK       0.651000
     15 OA2         -4.3290    -1.4810    -1.0330 o          1 HPK      -0.698000
     16 OA1         -5.7370     0.0770    -0.2610 o          1 HPK      -0.698000
     17 HB3          4.8510    -2.3970     0.8570 ha         1 HPK       0.109000
     18 HB4          6.4830    -0.9190    -0.2690 ha         1 HPK       0.105000
     19 HB5          5.7330     1.2260    -1.2500 ha         1 HPK       0.109000
     20 HB6          3.3700     1.8900    -1.1000 ha         1 HPK       0.126000
     21 HB2          2.5000    -1.7490     1.0090 ha         1 HPK       0.126000
     22 HA51         0.3320    -1.3220     0.1300 hc         1 HPK       0.057700
     23 HA52         0.6880    -0.6130     1.6890 hc         1 HPK       0.057700
     24 HA4         -1.1340     1.1210     1.3360 ha         1 HPK       0.185000
     25 HA3         -2.0100    -1.2320    -0.4150 ha         1 HPK       0.196000
@<TRIPOS>BOND
     1     1     2 ar  
     2     1     6 ar  
     3     1    17 1   
     4     2     3 ar  
     5     2    18 1   
     6     3     4 ar  
     7     3    19 1   
     8     4     5 ar  
     9     4    20 1   
    10     5     6 ar  
    11     5     7 1   
    12     6    21 1   
    13     7     8 2   
    14     7     9 1   
    15     9    10 1   
    16     9    22 1   
    17     9    23 1   
    18    10    11 2   
    19    10    24 1   
    20    11    12 1   
    21    11    25 1   
    22    12    13 2   
    23    12    14 1   
    24    14    15 1   
    25    14    16 1   
@<TRIPOS>SUBSTRUCTURE
     1 HPK         1 TEMP              0 ****  ****    0 ROOT
