@<TRIPOS>MOLECULE
HPL
   27    26     1     0     0
SMALL
No Charge or Current Charge


@<TRIPOS>ATOM
      1 C1           0.4080    -0.0170     4.3810 c3         1 HPL      -0.074400
      2 C2          -0.3980    -0.0210     3.0640 c3         1 HPL      -0.076400
      3 C3           0.4980    -0.0140     1.8070 c3         1 HPL      -0.074400
      4 C4          -0.3090    -0.0180     0.4900 c3         1 HPL      -0.073400
      5 C5           0.5880    -0.0100    -0.7680 c3         1 HPL      -0.094400
      6 C6          -0.4850    -0.0250     5.6370 c3         1 HPL      -0.089100
      7 C12         -0.2210    -0.0140    -2.0790 c3         1 HPL       0.099000
      8 N13          0.6540    -0.0070    -3.2530 ns         1 HPL      -0.517900
      9 C14          0.2070    -0.0070    -4.5550 c          1 HPL       0.595900
     10 O16         -0.9820    -0.0150    -4.8470 o          1 HPL      -0.606100
     11 H11          1.0550     0.8690     4.4100 hc         1 HPL       0.036700
     12 H12          1.0670    -0.8950     4.4080 hc         1 HPL       0.036700
     13 H21         -1.0450    -0.9080     3.0410 hc         1 HPL       0.038700
     14 H22         -1.0570     0.8560     3.0430 hc         1 HPL       0.038700
     15 H31          1.1450     0.8730     1.8300 hc         1 HPL       0.037700
     16 H32          1.1570    -0.8910     1.8280 hc         1 HPL       0.037700
     17 H41         -0.9550    -0.9040     0.4660 hc         1 HPL       0.042700
     18 H42         -0.9670     0.8600     0.4680 hc         1 HPL       0.042700
     19 H51          1.2330     0.8770    -0.7460 hc         1 HPL       0.042200
     20 H52          1.2450    -0.8880    -0.7480 hc         1 HPL       0.042200
     21 H61          0.1300    -0.0220     6.5440 hc         1 HPL       0.032367
     22 H62         -1.1320     0.8600     5.6580 hc         1 HPL       0.032367
     23 H63         -1.1200    -0.9190     5.6560 hc         1 HPL       0.032367
     24 H121        -0.8570    -0.9080    -2.1170 h1         1 HPL       0.051700
     25 H122        -0.8690     0.8720    -2.1140 h1         1 HPL       0.051700
     26 H13          1.6580    -0.0000    -3.1150 hn         1 HPL       0.312500
     27 H14          1.0320    -0.0010    -5.2930 h5         1 HPL       0.005200
@<TRIPOS>BOND
     1     1     2 1   
     2     1     6 1   
     3     1    11 1   
     4     1    12 1   
     5     2     3 1   
     6     2    13 1   
     7     2    14 1   
     8     3     4 1   
     9     3    15 1   
    10     3    16 1   
    11     4     5 1   
    12     4    17 1   
    13     4    18 1   
    14     5     7 1   
    15     5    19 1   
    16     5    20 1   
    17     6    21 1   
    18     6    22 1   
    19     6    23 1   
    20     7     8 1   
    21     7    24 1   
    22     7    25 1   
    23     8     9 1   
    24     8    26 1   
    25     9    10 2   
    26     9    27 1   
@<TRIPOS>SUBSTRUCTURE
     1 HPL         1 TEMP              0 ****  ****    0 ROOT
