@<TRIPOS>MOLECULE
HPL
   27    26     1     0     0
SMALL
bcc


@<TRIPOS>ATOM
      1 C1           0.4090    -0.0160     4.3320 c3         1 HPL      -0.074400
      2 C2          -0.3800    -0.0210     3.0280 c3         1 HPL      -0.076400
      3 C3           0.5040    -0.0140     1.7870 c3         1 HPL      -0.074400
      4 C4          -0.2910    -0.0220     0.4890 c3         1 HPL      -0.073400
      5 C5           0.5950    -0.0100    -0.7500 c3         1 HPL      -0.094400
      6 C6          -0.4890    -0.0200     5.5620 c3         1 HPL      -0.089100
      7 C12         -0.2210    -0.0240    -2.0320 c3         1 HPL       0.099000
      8 N13          0.6440    -0.0120    -3.1950 ns         1 HPL      -0.584900
      9 C14          0.1900     0.0080    -4.4490 c          1 HPL       0.662900
     10 O16         -0.9890     0.0220    -4.7670 o          1 HPL      -0.606100
     11 H11          1.0620     0.8610     4.3570 hc         1 HPL       0.036700
     12 H12          1.0710    -0.8880     4.3570 hc         1 HPL       0.036700
     13 H21         -1.0320    -0.9010     3.0030 hc         1 HPL       0.038700
     14 H22         -1.0460     0.8490     3.0040 hc         1 HPL       0.038700
     15 H31          1.1550     0.8680     1.8100 hc         1 HPL       0.037700
     16 H32          1.1710    -0.8830     1.8110 hc         1 HPL       0.037700
     17 H41         -0.9390    -0.9050     0.4650 hc         1 HPL       0.042700
     18 H42         -0.9590     0.8460     0.4660 hc         1 HPL       0.042700
     19 H51          1.2350     0.8780    -0.7330 hc         1 HPL       0.042200
     20 H52          1.2620    -0.8790    -0.7310 hc         1 HPL       0.042200
     21 H61          0.0900    -0.0190     6.4860 hc         1 HPL       0.032367
     22 H62         -1.1370     0.8580     5.5770 hc         1 HPL       0.032367
     23 H63         -1.1310    -0.9030     5.5760 hc         1 HPL       0.032367
     24 H121        -0.8600    -0.9120    -2.0550 h1         1 HPL       0.051700
     25 H122        -0.8850     0.8440    -2.0580 h1         1 HPL       0.051700
     26 H13          1.6420    -0.0320    -3.0580 hn         1 HPL       0.312500
     27 H14          1.0050     0.0120    -5.1890 h5         1 HPL       0.005200
@<TRIPOS>BOND
     1     1     2 1   
     2     1     6 1   
     3     1    11 1   
     4     1    12 1   
     5     2     3 1   
     6     2    13 1   
     7     2    14 1   
     8     3     4 1   
     9     3    15 1   
    10     3    16 1   
    11     4     5 1   
    12     4    17 1   
    13     4    18 1   
    14     5     7 1   
    15     5    19 1   
    16     5    20 1   
    17     6    21 1   
    18     6    22 1   
    19     6    23 1   
    20     7     8 1   
    21     7    24 1   
    22     7    25 1   
    23     8     9 1   
    24     8    26 1   
    25     9    10 2   
    26     9    27 1   
@<TRIPOS>SUBSTRUCTURE
     1 HPL         1 TEMP              0 ****  ****    0 ROOT
