@<TRIPOS>MOLECULE
HPM
   70    74     1     0     0
SMALL
No Charge or Current Charge


@<TRIPOS>ATOM
      1 C1         -10.3650    -1.7270    -0.2620 c6         1 HPM       0.172300
      2 C2         -11.7230    -1.1030    -0.6640 c6         1 HPM      -0.076900
      3 C3         -12.2500    -0.1600     0.4420 c6         1 HPM      -0.075400
      4 C4         -11.1730     0.8880     0.8020 c6         1 HPM      -0.076900
      5 C5          -9.8310     0.2050     1.1610 c6         1 HPM       0.172300
      6 N6          -9.3520    -0.6800     0.0540 n3         1 HPM      -0.750600
      7 C7          -8.0060    -1.2720     0.3190 c3         1 HPM       0.126800
      8 C8          -6.8680    -0.2200     0.2940 c3         1 HPM       0.172300
      9 C9          -5.4710    -0.8470     0.0440 c3         1 HPM       0.152600
     10 O10         -4.4680     0.1780     0.1870 os         1 HPM      -0.303100
     11 C11         -3.1160    -0.0750     0.0250 ca         1 HPM       0.166100
     12 C12         -2.2050     0.9930     0.1970 ca         1 HPM       0.121100
     13 C13         -0.8190     0.7630     0.0380 ca         1 HPM      -0.163000
     14 C14         -0.3420    -0.5290    -0.2930 ca         1 HPM      -0.167000
     15 C15         -1.2580    -1.5970    -0.4590 ca         1 HPM       0.067000
     16 C16         -2.6330    -1.3610    -0.3000 ca         1 HPM      -0.193000
     17 N17         -0.8200    -2.8350    -0.7690 nb         1 HPM      -0.202000
     18 C18          0.5080    -3.0040    -0.9120 ca         1 HPM       0.162900
     19 N19          1.4550    -2.0580    -0.7800 nb         1 HPM      -0.272000
     20 C20          1.0360    -0.8220    -0.4630 ca         1 HPM       0.397900
     21 N21          2.0190     0.1680    -0.3630 nu         1 HPM      -0.928900
     22 C22          3.4330     0.1510    -0.2720 ca         1 HPM       0.156000
     23 C23          4.1820     1.3120    -0.5760 ca         1 HPM       0.122900
     24 N24          5.5290     1.3460    -0.4930 nb         1 HPM      -0.188000
     25 C25          6.1260     0.2040    -0.1030 ca         1 HPM       0.239900
     26 N26          5.5280    -0.9530     0.2430 nb         1 HPM      -0.188000
     27 C27          4.1810    -0.9780     0.1540 ca         1 HPM       0.122900
     28 N28          7.5270     0.2850     0.0160 ns         1 HPM      -0.316900
     29 C29          8.4970    -0.6870    -0.1510 c          1 HPM       0.627700
     30 C30          9.9320    -0.2420     0.0630 ca         1 HPM      -0.156600
     31 C31         10.9830    -1.1750    -0.1040 ca         1 HPM      -0.069500
     32 C32         12.3220    -0.7930     0.0870 ca         1 HPM      -0.119000
     33 C33         12.6340     0.5260     0.4480 ca         1 HPM      -0.086000
     34 C34         11.6050     1.4640     0.6180 ca         1 HPM      -0.119000
     35 C35         10.2630     1.0880     0.4290 ca         1 HPM      -0.069500
     36 O36          8.2230    -1.8400    -0.4640 o          1 HPM      -0.527100
     37 O37         -2.7060     2.2440     0.5220 os         1 HPM      -0.310100
     38 C38         -1.8630     3.3930     0.7190 c3         1 HPM       0.143900
     39 O39         -7.2280     0.7140    -0.7320 oh         1 HPM      -0.652000
     40 H1C1       -10.0130    -2.3590    -1.0900 h1         1 HPM       0.033950
     41 H1C2       -10.5150    -2.3860     0.6070 h1         1 HPM       0.033950
     42 H2C1       -12.4550    -1.8980    -0.8600 hc         1 HPM       0.049200
     43 H2C2       -11.6050    -0.5450    -1.6030 hc         1 HPM       0.049200
     44 H3C1       -12.5120    -0.7450     1.3340 hc         1 HPM       0.041200
     45 H3C2       -13.1700     0.3400     0.1080 hc         1 HPM       0.041200
     46 H4C1       -11.5140     1.5030     1.6450 hc         1 HPM       0.049200
     47 H4C2       -11.0200     1.5710    -0.0440 hc         1 HPM       0.049200
     48 H5C1        -9.9620    -0.3800     2.0840 h1         1 HPM       0.033950
     49 H5C2        -9.0940     0.9900     1.3820 h1         1 HPM       0.033950
     50 H7C1        -7.7830    -2.0210    -0.4540 h1         1 HPM       0.044200
     51 H7C2        -7.9930    -1.7970     1.2840 h1         1 HPM       0.044200
     52 H8          -6.8520     0.2870     1.2680 h1         1 HPM       0.047700
     53 H9C1        -5.4430    -1.2850    -0.9630 h1         1 HPM       0.044700
     54 H9C2        -5.3040    -1.6480     0.7760 h1         1 HPM       0.044700
     55 H13         -0.1170     1.5780     0.1780 ha         1 HPM       0.112000
     56 H16         -3.3150    -2.1950    -0.4340 ha         1 HPM       0.142000
     57 H18          0.8490    -4.0060    -1.1650 h5         1 HPM       0.048100
     58 H21          1.6200     1.1050    -0.4240 hn         1 HPM       0.500000
     59 H23          3.6950     2.2320    -0.8960 h4         1 HPM       0.037100
     60 H27          3.7050    -1.9090     0.4510 h4         1 HPM       0.037100
     61 H28          7.8740     1.2120     0.2150 hn         1 HPM       0.171000
     62 H31         10.7660    -2.2040    -0.3840 ha         1 HPM       0.125500
     63 H32         13.1180    -1.5220    -0.0450 ha         1 HPM       0.118500
     64 H33         13.6710     0.8210     0.5960 ha         1 HPM       0.116000
     65 H34         11.8460     2.4870     0.8990 ha         1 HPM       0.118500
     66 H35          9.4950     1.8440     0.5710 ha         1 HPM       0.125500
     67 H381        -1.2940     3.6190    -0.1920 h1         1 HPM       0.042033
     68 H382        -2.4710     4.2720     0.9660 h1         1 HPM       0.042033
     69 H383        -1.1590     3.2240     1.5440 h1         1 HPM       0.042033
     70 H39         -8.2020     0.5360    -0.8100 ho         1 HPM       0.472000
@<TRIPOS>BOND
     1     1     2 1   
     2     1     6 1   
     3     1    40 1   
     4     1    41 1   
     5     2     3 1   
     6     2    42 1   
     7     2    43 1   
     8     3     4 1   
     9     3    44 1   
    10     3    45 1   
    11     4     5 1   
    12     4    46 1   
    13     4    47 1   
    14     5     6 1   
    15     5    48 1   
    16     5    49 1   
    17     6     7 1   
    18     7     8 1   
    19     7    50 1   
    20     7    51 1   
    21     8     9 1   
    22     8    39 1   
    23     8    52 1   
    24     9    10 1   
    25     9    53 1   
    26     9    54 1   
    27    10    11 1   
    28    11    12 ar  
    29    11    16 ar  
    30    12    13 ar  
    31    12    37 1   
    32    13    14 ar  
    33    13    55 1   
    34    14    15 ar  
    35    14    20 ar  
    36    15    16 ar  
    37    15    17 ar  
    38    16    56 1   
    39    17    18 ar  
    40    18    19 ar  
    41    18    57 1   
    42    19    20 ar  
    43    20    21 1   
    44    21    22 1   
    45    21    58 1   
    46    22    23 ar  
    47    22    27 ar  
    48    23    24 ar  
    49    23    59 1   
    50    24    25 ar  
    51    25    26 ar  
    52    25    28 1   
    53    26    27 ar  
    54    27    60 1   
    55    28    29 1   
    56    28    61 1   
    57    29    30 1   
    58    29    36 2   
    59    30    31 ar  
    60    30    35 ar  
    61    31    32 ar  
    62    31    62 1   
    63    32    33 ar  
    64    32    63 1   
    65    33    34 ar  
    66    33    64 1   
    67    34    35 ar  
    68    34    65 1   
    69    35    66 1   
    70    37    38 1   
    71    38    67 1   
    72    38    68 1   
    73    38    69 1   
    74    39    70 1   
@<TRIPOS>SUBSTRUCTURE
     1 HPM         1 TEMP              0 ****  ****    0 ROOT
