@<TRIPOS>MOLECULE
HPM
   70    74     1     0     0
SMALL
abcg2


@<TRIPOS>ATOM
      1 C1         -10.0510    -1.6000    -0.6870 c6         1 HPM       0.172300
      2 C2         -11.3490    -0.8780    -1.0120 c6         1 HPM      -0.076900
      3 C3         -11.9860    -0.3140     0.2510 c6         1 HPM      -0.075400
      4 C4         -10.9830     0.5480     1.0060 c6         1 HPM      -0.076900
      5 C5          -9.6920    -0.2170     1.2550 c6         1 HPM       0.172300
      6 N6          -9.1270    -0.7180     0.0100 n3         1 HPM      -0.750600
      7 C7          -7.8080    -1.2930     0.1900 c3         1 HPM       0.126800
      8 C8          -6.7680    -0.1680     0.2140 c3         1 HPM       0.172300
      9 C9          -5.3830    -0.7480     0.0450 c3         1 HPM       0.152600
     10 O10         -4.4430     0.3040     0.2000 os         1 HPM      -0.303100
     11 C11         -3.1430     0.0170     0.1190 ca         1 HPM       0.166100
     12 C12         -2.2720     1.1380     0.3030 ca         1 HPM       0.121100
     13 C13         -0.9160     0.9620     0.2440 ca         1 HPM      -0.163000
     14 C14         -0.3670    -0.3180    -0.0000 ca         1 HPM      -0.167000
     15 C15         -1.2220    -1.4210    -0.1710 ca         1 HPM       0.067000
     16 C16         -2.6180    -1.2280    -0.1120 ca         1 HPM      -0.193000
     17 N17         -0.7470    -2.6750    -0.3860 nb         1 HPM      -0.202000
     18 C18          0.5490    -2.7980    -0.4190 ca         1 HPM       0.162900
     19 N19          1.4640    -1.8320    -0.2780 nb         1 HPM      -0.272000
     20 C20          1.0300    -0.6060    -0.0790 ca         1 HPM       0.397900
     21 N21          1.9400     0.3940     0.0530 nu         1 HPM      -0.928900
     22 C22          3.3250     0.2690     0.0040 ca         1 HPM       0.156000
     23 C23          4.0860     1.2790    -0.5760 ca         1 HPM       0.122900
     24 N24          5.4040     1.2430    -0.6160 nb         1 HPM      -0.188000
     25 C25          5.9920     0.1800    -0.0780 ca         1 HPM       0.239900
     26 N26          5.3740    -0.8260     0.5130 nb         1 HPM      -0.188000
     27 C27          4.0510    -0.7820     0.5580 ca         1 HPM       0.122900
     28 N28          7.3740     0.2110    -0.1520 ns         1 HPM      -0.316900
     29 C29          8.2770    -0.7730     0.1460 c          1 HPM       0.627700
     30 C30          9.7070    -0.3490     0.0500 ca         1 HPM      -0.156600
     31 C31         10.6610    -1.3340    -0.2000 ca         1 HPM      -0.069500
     32 C32         12.0040    -1.0020    -0.2820 ca         1 HPM      -0.119000
     33 C33         12.4090     0.3140    -0.0960 ca         1 HPM      -0.086000
     34 C34         11.4660     1.2960     0.1720 ca         1 HPM      -0.119000
     35 C35         10.1200     0.9690     0.2420 ca         1 HPM      -0.069500
     36 O36          7.9710    -1.9070     0.4490 o          1 HPM      -0.527100
     37 O37         -2.8960     2.2990     0.5340 os         1 HPM      -0.310100
     38 C38         -2.1060     3.4530     0.7450 c3         1 HPM       0.143900
     39 O39         -7.0420     0.7380    -0.8230 oh         1 HPM      -0.652000
     40 H1C1        -9.5730    -1.9420    -1.6070 h1         1 HPM       0.033950
     41 H1C2       -10.2770    -2.5000    -0.0900 h1         1 HPM       0.033950
     42 H2C1       -12.0280    -1.5710    -1.5140 hc         1 HPM       0.049200
     43 H2C2       -11.1400    -0.0680    -1.7180 hc         1 HPM       0.049200
     44 H3C1       -12.3090    -1.1430     0.8910 hc         1 HPM       0.041200
     45 H3C2       -12.8830     0.2610     0.0080 hc         1 HPM       0.041200
     46 H4C1       -11.3950     0.8780     1.9610 hc         1 HPM       0.049200
     47 H4C2       -10.7560     1.4480     0.4270 hc         1 HPM       0.049200
     48 H5C1        -9.8820    -1.0460     1.9590 h1         1 HPM       0.033950
     49 H5C2        -8.9660     0.4390     1.7410 h1         1 HPM       0.033950
     50 H7C1        -7.6030    -1.9480    -0.6620 h1         1 HPM       0.044200
     51 H7C2        -7.7290    -1.9110     1.0950 h1         1 HPM       0.044200
     52 H8          -6.8040     0.3360     1.1930 h1         1 HPM       0.047700
     53 H9C1        -5.2840    -1.2070    -0.9460 h1         1 HPM       0.044700
     54 H9C2        -5.2140    -1.5240     0.7990 h1         1 HPM       0.044700
     55 H13         -0.2680     1.8130     0.3950 ha         1 HPM       0.112000
     56 H16         -3.2490    -2.0950    -0.2470 ha         1 HPM       0.142000
     57 H18          0.9450    -3.7950    -0.5830 h5         1 HPM       0.048100
     58 H21          1.5960     1.3400     0.0230 hn         1 HPM       0.500000
     59 H23          3.6040     2.1470    -1.0150 h4         1 HPM       0.037100
     60 H27          3.5580    -1.6030     1.0570 h4         1 HPM       0.037100
     61 H28          7.7280     1.0640    -0.5600 hn         1 HPM       0.171000
     62 H31         10.3520    -2.3610    -0.3400 ha         1 HPM       0.125500
     63 H32         12.7360    -1.7720    -0.4890 ha         1 HPM       0.118500
     64 H33         13.4590     0.5710    -0.1540 ha         1 HPM       0.116000
     65 H34         11.7770     2.3200     0.3340 ha         1 HPM       0.118500
     66 H35          9.4090     1.7510     0.4770 ha         1 HPM       0.125500
     67 H381        -1.4970     3.6930    -0.1310 h1         1 HPM       0.042033
     68 H382        -2.7980     4.2710     0.9270 h1         1 HPM       0.042033
     69 H383        -1.4520     3.3420     1.6140 h1         1 HPM       0.042033
     70 H39         -8.0080     0.6720    -0.9350 ho         1 HPM       0.472000
@<TRIPOS>BOND
     1     1     2 1   
     2     1     6 1   
     3     1    40 1   
     4     1    41 1   
     5     2     3 1   
     6     2    42 1   
     7     2    43 1   
     8     3     4 1   
     9     3    44 1   
    10     3    45 1   
    11     4     5 1   
    12     4    46 1   
    13     4    47 1   
    14     5     6 1   
    15     5    48 1   
    16     5    49 1   
    17     6     7 1   
    18     7     8 1   
    19     7    50 1   
    20     7    51 1   
    21     8     9 1   
    22     8    39 1   
    23     8    52 1   
    24     9    10 1   
    25     9    53 1   
    26     9    54 1   
    27    10    11 1   
    28    11    12 ar  
    29    11    16 ar  
    30    12    13 ar  
    31    12    37 1   
    32    13    14 ar  
    33    13    55 1   
    34    14    15 ar  
    35    14    20 ar  
    36    15    16 ar  
    37    15    17 ar  
    38    16    56 1   
    39    17    18 ar  
    40    18    19 ar  
    41    18    57 1   
    42    19    20 ar  
    43    20    21 1   
    44    21    22 1   
    45    21    58 1   
    46    22    23 ar  
    47    22    27 ar  
    48    23    24 ar  
    49    23    59 1   
    50    24    25 ar  
    51    25    26 ar  
    52    25    28 1   
    53    26    27 ar  
    54    27    60 1   
    55    28    29 1   
    56    28    61 1   
    57    29    30 1   
    58    29    36 2   
    59    30    31 ar  
    60    30    35 ar  
    61    31    32 ar  
    62    31    62 1   
    63    32    33 ar  
    64    32    63 1   
    65    33    34 ar  
    66    33    64 1   
    67    34    35 ar  
    68    34    65 1   
    69    35    66 1   
    70    37    38 1   
    71    38    67 1   
    72    38    68 1   
    73    38    69 1   
    74    39    70 1   
@<TRIPOS>SUBSTRUCTURE
     1 HPM         1 TEMP              0 ****  ****    0 ROOT
