@<TRIPOS>MOLECULE
HPN
   24    23     1     0     0
SMALL
No Charge or Current Charge


@<TRIPOS>ATOM
      1 N1           0.6500    -0.0220    -4.0210 nt         1 HPN      -0.616000
      2 C1          -0.1250    -0.0160    -2.9170 c          1 HPN       0.603100
      3 O1          -1.3400    -0.0100    -3.0200 o          1 HPN      -0.604100
      4 C2           0.6270    -0.0170    -1.5800 c3         1 HPN      -0.159400
      5 C3          -0.2590    -0.0090    -0.3100 c3         1 HPN      -0.064400
      6 C4           0.5630    -0.0100     0.9960 c3         1 HPN      -0.077400
      7 C5          -0.3170    -0.0020     2.2650 c3         1 HPN      -0.075400
      8 C6           0.5060    -0.0040     3.5720 c3         1 HPN      -0.075400
      9 C7          -0.3720     0.0040     4.8380 c3         1 HPN      -0.088100
     10 HN11         0.2140    -0.0210    -4.9320 hn         1 HPN       0.311500
     11 HN12         1.6560    -0.0270    -3.9330 hn         1 HPN       0.311500
     12 H21          1.3310     0.8240    -1.5910 hc         1 HPN       0.053200
     13 H22          1.3210    -0.8660    -1.5870 hc         1 HPN       0.053200
     14 H31         -0.9170    -0.8880    -0.3240 hc         1 HPN       0.055700
     15 H32         -0.9070     0.8770    -0.3280 hc         1 HPN       0.055700
     16 H41          1.2210     0.8680     1.0090 hc         1 HPN       0.034200
     17 H42          1.2110    -0.8960     1.0130 hc         1 HPN       0.034200
     18 H51         -0.9750    -0.8810     2.2530 hc         1 HPN       0.040200
     19 H52         -0.9650     0.8830     2.2490 hc         1 HPN       0.040200
     20 H61          1.1640     0.8740     3.5890 hc         1 HPN       0.035700
     21 H62          1.1540    -0.8890     3.5930 hc         1 HPN       0.035700
     22 H71          0.2550     0.0030     5.7380 hc         1 HPN       0.032033
     23 H72         -1.0070     0.8980     4.8650 hc         1 HPN       0.032033
     24 H73         -1.0170    -0.8820     4.8690 hc         1 HPN       0.032033
@<TRIPOS>BOND
     1     1     2 1   
     2     1    10 1   
     3     1    11 1   
     4     2     3 2   
     5     2     4 1   
     6     4     5 1   
     7     4    12 1   
     8     4    13 1   
     9     5     6 1   
    10     5    14 1   
    11     5    15 1   
    12     6     7 1   
    13     6    16 1   
    14     6    17 1   
    15     7     8 1   
    16     7    18 1   
    17     7    19 1   
    18     8     9 1   
    19     8    20 1   
    20     8    21 1   
    21     9    22 1   
    22     9    23 1   
    23     9    24 1   
@<TRIPOS>SUBSTRUCTURE
     1 HPN         1 TEMP              0 ****  ****    0 ROOT
