@<TRIPOS>MOLECULE
HPN
   24    23     1     0     0
SMALL
abcg2


@<TRIPOS>ATOM
      1 N1           0.6420     0.0340    -3.9470 nt         1 HPN      -0.616000
      2 C1          -0.1310    -0.0400    -2.8510 c          1 HPN       0.603100
      3 O1          -1.3510    -0.1040    -2.9090 o          1 HPN      -0.604100
      4 C2           0.6310    -0.0460    -1.5400 c3         1 HPN      -0.159400
      5 C3          -0.2530    -0.0170    -0.3050 c3         1 HPN      -0.064400
      6 C4           0.5660    -0.0210     0.9810 c3         1 HPN      -0.077400
      7 C5          -0.2990     0.0010     2.2350 c3         1 HPN      -0.075400
      8 C6           0.5110    -0.0040     3.5260 c3         1 HPN      -0.075400
      9 C7          -0.3670     0.0170     4.7700 c3         1 HPN      -0.088100
     10 HN11         0.2330     0.0260    -4.8660 hn         1 HPN       0.311500
     11 HN12         1.6450     0.0810    -3.8850 hn         1 HPN       0.311500
     12 H21          1.3170     0.8070    -1.5320 hc         1 HPN       0.053200
     13 H22          1.2710    -0.9350    -1.5230 hc         1 HPN       0.053200
     14 H31         -0.9260    -0.8790    -0.3080 hc         1 HPN       0.055700
     15 H32         -0.8910     0.8710    -0.3250 hc         1 HPN       0.055700
     16 H41          1.2370     0.8450     0.9890 hc         1 HPN       0.034200
     17 H42          1.2120    -0.9050     1.0000 hc         1 HPN       0.034200
     18 H51         -0.9720    -0.8640     2.2270 hc         1 HPN       0.040200
     19 H52         -0.9440     0.8860     2.2150 hc         1 HPN       0.040200
     20 H61          1.1810     0.8610     3.5350 hc         1 HPN       0.035700
     21 H62          1.1560    -0.8880     3.5460 hc         1 HPN       0.035700
     22 H71          0.2270     0.0180     5.6840 hc         1 HPN       0.032033
     23 H72         -1.0010     0.9050     4.7870 hc         1 HPN       0.032033
     24 H73         -1.0220    -0.8550     4.8020 hc         1 HPN       0.032033
@<TRIPOS>BOND
     1     1     2 1   
     2     1    10 1   
     3     1    11 1   
     4     2     3 2   
     5     2     4 1   
     6     4     5 1   
     7     4    12 1   
     8     4    13 1   
     9     5     6 1   
    10     5    14 1   
    11     5    15 1   
    12     6     7 1   
    13     6    16 1   
    14     6    17 1   
    15     7     8 1   
    16     7    18 1   
    17     7    19 1   
    18     8     9 1   
    19     8    20 1   
    20     8    21 1   
    21     9    22 1   
    22     9    23 1   
    23     9    24 1   
@<TRIPOS>SUBSTRUCTURE
     1 HPN         1 TEMP              0 ****  ****    0 ROOT
