@<TRIPOS>MOLECULE
HPO
   25    24     1     0     0
SMALL
bcc


@<TRIPOS>ATOM
      1 C1          -0.0950     0.6770     6.0240 c3         1 HPO      -0.084100
      2 C2           0.5320     0.0510     4.7860 c3         1 HPO      -0.077400
      3 C3          -0.3750     0.1180     3.5630 c3         1 HPO      -0.078400
      4 C4           0.2430    -0.5140     2.3220 c3         1 HPO      -0.054400
      5 C5          -0.6620    -0.4050     1.1070 c3         1 HPO      -0.204400
      6 C6          -0.1260    -1.0290    -0.1590 c          1 HPO       0.630100
      7 C7          -0.8690    -0.7090    -1.3970 c3         1 HPO      -0.316600
      8 O1           0.8770    -1.7220    -0.1460 o          1 HPO      -0.640100
      9 P1          -0.3030     0.9610    -2.1370 p5         1 HPO       1.132700
     10 O2           1.2110     0.8220    -2.2710 o          1 HPO      -0.919500
     11 O3          -1.0590     1.0180    -3.4650 o          1 HPO      -0.919500
     12 O4          -0.7550     2.0120    -1.1180 o          1 HPO      -0.919500
     13 H11          0.5740     0.6220     6.8840 hc         1 HPO       0.016367
     14 H12         -0.3330     1.7300     5.8590 hc         1 HPO       0.016367
     15 H13         -1.0220     0.1700     6.2950 hc         1 HPO       0.016367
     16 H21          1.4790     0.5510     4.5580 hc         1 HPO       0.030200
     17 H22          0.7840    -0.9930     4.9940 hc         1 HPO       0.030200
     18 H31         -1.3270    -0.3770     3.7910 hc         1 HPO       0.030700
     19 H32         -0.6230     1.1650     3.3550 hc         1 HPO       0.030700
     20 H41          1.2030    -0.0310     2.1110 hc         1 HPO       0.035700
     21 H42          0.4710    -1.5640     2.5260 hc         1 HPO       0.035700
     22 H51         -1.6330    -0.8710     1.3170 hc         1 HPO       0.067700
     23 H52         -0.8910     0.6390     0.8710 hc         1 HPO       0.067700
     24 H71         -0.7050    -1.4840    -2.1490 hc         1 HPO       0.035700
     25 H72         -1.9410    -0.6290    -1.2000 hc         1 HPO       0.035700
@<TRIPOS>BOND
     1     1     2 1   
     2     1    13 1   
     3     1    14 1   
     4     1    15 1   
     5     2     3 1   
     6     2    16 1   
     7     2    17 1   
     8     3     4 1   
     9     3    18 1   
    10     3    19 1   
    11     4     5 1   
    12     4    20 1   
    13     4    21 1   
    14     5     6 1   
    15     5    22 1   
    16     5    23 1   
    17     6     7 1   
    18     6     8 2   
    19     7     9 1   
    20     7    24 1   
    21     7    25 1   
    22     9    10 1   
    23     9    11 1   
    24     9    12 1   
@<TRIPOS>SUBSTRUCTURE
     1 HPO         1 TEMP              0 ****  ****    0 ROOT
