@<TRIPOS>MOLECULE
HPO
   25    24     1     0     0
SMALL
No Charge or Current Charge


@<TRIPOS>ATOM
      1 C1          -0.1000     0.6530     6.0500 c3         1 HPO      -0.084100
      2 C2           0.5240     0.4150     4.6620 c3         1 HPO      -0.077400
      3 C3          -0.5030    -0.0570     3.6100 c3         1 HPO      -0.078400
      4 C4           0.1220    -0.2970     2.2180 c3         1 HPO      -0.054400
      5 C5          -0.9090    -0.7730     1.1670 c3         1 HPO      -0.204400
      6 C6          -0.2590    -1.0280    -0.2060 c          1 HPO       0.630100
      7 C7          -0.9810    -0.4460    -1.3980 c3         1 HPO      -0.474400
      8 O1           0.4810    -1.9940    -0.3570 o          1 HPO      -0.640100
      9 P1           0.1770     0.7760    -2.0320 p5         1 HPO       1.290500
     10 O2           1.2850     0.0810    -2.7440 o          1 HPO      -0.919500
     11 O3          -0.5760     1.6420    -2.9820 o          1 HPO      -0.919500
     12 O4           0.6940     1.5860    -0.8960 o          1 HPO      -0.919500
     13 H11          0.6660     0.9860     6.7610 hc         1 HPO       0.016367
     14 H12         -0.8780     1.4240     5.9990 hc         1 HPO       0.016367
     15 H13         -0.5490    -0.2690     6.4370 hc         1 HPO       0.016367
     16 H21          0.9950     1.3450     4.3190 hc         1 HPO       0.030200
     17 H22          1.3210    -0.3330     4.7530 hc         1 HPO       0.030200
     18 H31         -0.9740    -0.9850     3.9580 hc         1 HPO       0.030700
     19 H32         -1.3000     0.6930     3.5230 hc         1 HPO       0.030700
     20 H41          0.5910     0.6310     1.8690 hc         1 HPO       0.035700
     21 H42          0.9200    -1.0450     2.3070 hc         1 HPO       0.035700
     22 H51         -1.3540    -1.7110     1.5180 hc         1 HPO       0.067700
     23 H52         -1.6880    -0.0070     1.0850 hc         1 HPO       0.067700
     24 H71         -1.1720    -1.1930    -2.1760 hc         1 HPO       0.035700
     25 H72         -1.8780     0.1170    -1.1230 hc         1 HPO       0.035700
@<TRIPOS>BOND
     1     1     2 1   
     2     1    13 1   
     3     1    14 1   
     4     1    15 1   
     5     2     3 1   
     6     2    16 1   
     7     2    17 1   
     8     3     4 1   
     9     3    18 1   
    10     3    19 1   
    11     4     5 1   
    12     4    20 1   
    13     4    21 1   
    14     5     6 1   
    15     5    22 1   
    16     5    23 1   
    17     6     7 1   
    18     6     8 2   
    19     7     9 1   
    20     7    24 1   
    21     7    25 1   
    22     9    10 1   
    23     9    11 1   
    24     9    12 1   
@<TRIPOS>SUBSTRUCTURE
     1 HPO         1 TEMP              0 ****  ****    0 ROOT
