@<TRIPOS>MOLECULE
HPP
   21    21     1     0     0
SMALL
abcg2


@<TRIPOS>ATOM
      1 C1          -0.0980     0.5280    -0.4360 ca         1 HPP      -0.075300
      2 C2          -1.2880     0.4400    -1.1550 ca         1 HPP      -0.081000
      3 C3          -1.3030     0.1540    -2.5130 ca         1 HPP      -0.178500
      4 C4          -0.1070    -0.0550    -3.1920 ca         1 HPP       0.102100
      5 O4          -0.1660    -0.3320    -4.5130 oh         1 HPP      -0.551100
      6 C5           1.0950     0.0300    -2.4930 ca         1 HPP      -0.178500
      7 C6           1.0880     0.3180    -1.1360 ca         1 HPP      -0.081000
      8 C7          -0.0900     0.7870     1.0460 c3         1 HPP      -0.018100
      9 C8           0.1020    -0.4980     1.8470 c3         1 HPP      -0.203400
     10 C9           0.1240    -0.3340     3.3780 c          1 HPP       0.717000
     11 O1          -0.0610     0.8070     3.8460 o          1 HPP      -0.740000
     12 O2           0.3250    -1.3790     4.0320 o          1 HPP      -0.740000
     13 H2          -2.2310     0.6010    -0.6450 ha         1 HPP       0.114000
     14 H3          -2.2430     0.0930    -3.0480 ha         1 HPP       0.103500
     15 HO4          0.7190    -0.4810    -4.8630 ho         1 HPP       0.451000
     16 H5           2.0380    -0.1280    -3.0060 ha         1 HPP       0.103500
     17 H6           2.0350     0.3830    -0.6120 ha         1 HPP       0.114000
     18 H71         -1.0270     1.2650     1.3400 hc         1 HPP       0.049700
     19 H72          0.7060     1.4940     1.2920 hc         1 HPP       0.049700
     20 H81          1.0320    -0.9870     1.5390 hc         1 HPP       0.020700
     21 H82         -0.6920    -1.2090     1.5910 hc         1 HPP       0.020700
@<TRIPOS>BOND
     1     1     2 ar  
     2     1     7 ar  
     3     1     8 1   
     4     2     3 ar  
     5     2    13 1   
     6     3     4 ar  
     7     3    14 1   
     8     4     5 1   
     9     4     6 ar  
    10     5    15 1   
    11     6     7 ar  
    12     6    16 1   
    13     7    17 1   
    14     8     9 1   
    15     8    18 1   
    16     8    19 1   
    17     9    10 1   
    18     9    20 1   
    19     9    21 1   
    20    10    11 1   
    21    10    12 1   
@<TRIPOS>SUBSTRUCTURE
     1 HPP         1 TEMP              0 ****  ****    0 ROOT
