@<TRIPOS>MOLECULE
HPP
   21    21     1     0     0
SMALL
No Charge or Current Charge


@<TRIPOS>ATOM
      1 C1           0.0080     0.4580    -0.4410 ca         1 HPP      -0.075300
      2 C2          -1.2290     0.5210    -1.1120 ca         1 HPP      -0.081000
      3 C3          -1.2960     0.2890    -2.4980 ca         1 HPP      -0.178500
      4 C4          -0.1290    -0.0080    -3.2170 ca         1 HPP       0.102100
      5 O4          -0.2010    -0.2320    -4.5590 oh         1 HPP      -0.551100
      6 C5           1.1070    -0.0750    -2.5560 ca         1 HPP      -0.178500
      7 C6           1.1760     0.1570    -1.1700 ca         1 HPP      -0.081000
      8 C7           0.0820     0.7080     1.0600 c3         1 HPP      -0.018100
      9 C8          -0.0880    -0.5930     1.8800 c3         1 HPP      -0.203400
     10 C9          -0.0050    -0.2810     3.3830 c          1 HPP       0.717000
     11 O1          -1.0350     0.0160     3.9680 o          1 HPP      -0.740000
     12 O2           1.0950    -0.2950     3.9140 o          1 HPP      -0.740000
     13 H2          -2.1390     0.7490    -0.5600 ha         1 HPP       0.114000
     14 H3          -2.2530     0.3400    -3.0100 ha         1 HPP       0.103500
     15 HO4          0.7030    -0.4230    -4.8890 ho         1 HPP       0.451000
     16 H5           2.0160    -0.3060    -3.1060 ha         1 HPP       0.103500
     17 H6           2.1360     0.1020    -0.6620 ha         1 HPP       0.114000
     18 H71         -0.6920     1.4260     1.3600 hc         1 HPP       0.049700
     19 H72          1.0420     1.1730     1.3160 hc         1 HPP       0.049700
     20 H81          0.7380    -1.2480     1.5760 hc         1 HPP       0.020700
     21 H82         -1.0800    -0.9830     1.6210 hc         1 HPP       0.020700
@<TRIPOS>BOND
     1     1     2 ar  
     2     1     7 ar  
     3     1     8 1   
     4     2     3 ar  
     5     2    13 1   
     6     3     4 ar  
     7     3    14 1   
     8     4     5 1   
     9     4     6 ar  
    10     5    15 1   
    11     6     7 ar  
    12     6    16 1   
    13     7    17 1   
    14     8     9 1   
    15     8    18 1   
    16     8    19 1   
    17     9    10 1   
    18     9    20 1   
    19     9    21 1   
    20    10    11 1   
    21    10    12 1   
@<TRIPOS>SUBSTRUCTURE
     1 HPP         1 TEMP              0 ****  ****    0 ROOT
