@<TRIPOS>MOLECULE
HPR
   33    35     1     0     0
SMALL
abcg2


@<TRIPOS>ATOM
      1 N1          -0.8530    -0.1720    -4.0740 nb         1 HPR      -0.213000
      2 C2          -1.7090     0.2560    -3.1740 ca         1 HPR       0.163900
      3 N3          -1.4900     0.4240    -1.8680 nb         1 HPR      -0.228000
      4 C4          -0.2620     0.1200    -1.4960 ca         1 HPR       0.336900
      5 C5           0.7420    -0.3250    -2.3560 ca         1 HPR      -0.013000
      6 C6           0.3880    -0.4750    -3.6750 ca         1 HPR       0.361300
      7 O6           1.2040    -0.8970    -4.6490 oh         1 HPR      -0.627300
      8 N7           1.8980    -0.5770    -1.6160 nu         1 HPR      -0.888200
      9 C8           1.6940     0.0530    -0.3060 c5         1 HPR       0.472000
     10 N9           0.2370     0.1790    -0.2320 nh         1 HPR      -0.807300
     11 C1          -0.4190     0.9730     0.7950 c5         1 HPR       0.459500
     12 C7          -1.6230     0.2290     1.3600 c5         1 HPR       0.127300
     13 O2          -2.5020     1.1810     1.8980 oh         1 HPR      -0.705000
     14 C3          -0.9620    -0.6000     2.4640 c5         1 HPR       0.095300
     15 O3          -1.8550    -0.9770     3.4770 oh         1 HPR      -0.712000
     16 C9           0.1000     0.3650     2.9880 c5         1 HPR       0.155300
     17 O4           0.4660     1.1640     1.8640 os         1 HPR      -0.438000
     18 C10          1.3020    -0.3320     3.5710 c3         1 HPR       0.160600
     19 O5           2.2060     0.6290     4.0580 oh         1 HPR      -0.703000
     20 H2          -2.7050     0.5000    -3.5270 h5         1 HPR       0.056100
     21 HO6          2.0460    -1.2050    -4.2960 ho         1 HPR       0.477000
     22 HN7          2.7690    -0.3020    -2.0470 hn         1 HPR       0.439000
     23 H81          2.1900     1.0310    -0.2420 h2         1 HPR       0.053200
     24 H82          2.0810    -0.5810     0.4910 h2         1 HPR       0.053200
     25 H1          -0.7030     1.9490     0.3820 h2         1 HPR       0.102700
     26 H6          -2.1120    -0.3960     0.6050 h1         1 HPR       0.080700
     27 HO2         -3.0940     0.7240     2.5070 ho         1 HPR       0.524000
     28 H3          -0.4810    -1.4740     2.0090 h1         1 HPR       0.057700
     29 HO3         -2.0060    -1.9240     3.4290 ho         1 HPR       0.516000
     30 H4          -0.3490     1.0120     3.7530 h1         1 HPR       0.092700
     31 H5'1         1.7610    -0.9730     2.8050 h1         1 HPR       0.023200
     32 H5'2         0.9420    -0.9960     4.3680 h1         1 HPR       0.023200
     33 HO5          2.9300     0.1680     4.4920 ho         1 HPR       0.503000
@<TRIPOS>BOND
     1     1     2 ar  
     2     1     6 ar  
     3     2     3 ar  
     4     2    20 1   
     5     3     4 ar  
     6     4     5 ar  
     7     4    10 1   
     8     5     6 ar  
     9     5     8 1   
    10     6     7 1   
    11     7    21 1   
    12     8     9 1   
    13     8    22 1   
    14     9    10 1   
    15     9    23 1   
    16     9    24 1   
    17    10    11 1   
    18    11    12 1   
    19    11    17 1   
    20    11    25 1   
    21    12    13 1   
    22    12    14 1   
    23    12    26 1   
    24    13    27 1   
    25    14    15 1   
    26    14    16 1   
    27    14    28 1   
    28    15    29 1   
    29    16    17 1   
    30    16    18 1   
    31    16    30 1   
    32    18    19 1   
    33    18    31 1   
    34    18    32 1   
    35    19    33 1   
@<TRIPOS>SUBSTRUCTURE
     1 HPR         1 TEMP              0 ****  ****    0 ROOT
