@<TRIPOS>MOLECULE
HPR
   33    35     1     0     0
SMALL
No Charge or Current Charge


@<TRIPOS>ATOM
      1 N1          -0.9130     0.1110    -4.3360 nb         1 HPR      -0.213000
      2 C2          -1.7640     0.5750    -3.3830 ca         1 HPR       0.163900
      3 N3          -1.5350     0.6360    -2.0490 nb         1 HPR      -0.228000
      4 C4          -0.3320     0.1680    -1.6820 ca         1 HPR       0.336900
      5 C5           0.6180    -0.3160    -2.5390 ca         1 HPR      -0.013000
      6 C6           0.2900    -0.3360    -3.9120 ca         1 HPR       0.361300
      7 O6           1.1640    -0.8220    -4.8380 oh         1 HPR      -0.627300
      8 N7           1.8050    -0.6770    -1.8500 nu         1 HPR      -0.888200
      9 C8           1.6240    -0.2860    -0.4010 c5         1 HPR       0.472000
     10 N9           0.2020     0.1460    -0.4150 nh         1 HPR      -0.807300
     11 C1          -0.3130     0.9280     0.7410 c5         1 HPR       0.459500
     12 C7          -1.5460     0.1210     1.3230 c5         1 HPR       0.127300
     13 O2          -2.5730     0.9410     1.9130 oh         1 HPR      -0.705000
     14 C3          -0.8520    -0.6890     2.4530 c5         1 HPR       0.095300
     15 O3          -1.8170    -1.1480     3.4230 oh         1 HPR      -0.712000
     16 C9           0.1190     0.4050     2.9920 c5         1 HPR       0.155300
     17 O4           0.6900     0.9600     1.7850 os         1 HPR      -0.438000
     18 C10          1.2390    -0.1210     3.9340 c3         1 HPR       0.160600
     19 O5           1.9860     0.9610     4.5210 oh         1 HPR      -0.703000
     20 H2          -2.7300     0.9390    -3.7280 h5         1 HPR       0.056100
     21 HO6          1.9010    -1.2190    -4.3270 ho         1 HPR       0.477000
     22 HN7          2.7010    -0.5000    -2.3070 hn         1 HPR       0.439000
     23 H81          2.2940     0.5410    -0.1280 h2         1 HPR       0.053200
     24 H82          1.7730    -1.1440     0.2690 h2         1 HPR       0.053200
     25 H1          -0.6110     1.9450     0.4500 h2         1 HPR       0.102700
     26 H6          -1.9830    -0.5500     0.5700 h1         1 HPR       0.080700
     27 HO2         -2.8230     0.4210     2.7200 ho         1 HPR       0.524000
     28 H3          -0.2900    -1.5340     2.0280 h1         1 HPR       0.057700
     29 HO3         -1.4420    -1.9470     3.8660 ho         1 HPR       0.516000
     30 H4          -0.4370     1.1930     3.5180 h1         1 HPR       0.092700
     31 H5'1         1.9030    -0.7840     3.3620 h1         1 HPR       0.023200
     32 H5'2         0.7740    -0.7230     4.7270 h1         1 HPR       0.023200
     33 HO5          2.7080     0.5550     5.0560 ho         1 HPR       0.503000
@<TRIPOS>BOND
     1     1     2 ar  
     2     1     6 ar  
     3     2     3 ar  
     4     2    20 1   
     5     3     4 ar  
     6     4     5 ar  
     7     4    10 1   
     8     5     6 ar  
     9     5     8 1   
    10     6     7 1   
    11     7    21 1   
    12     8     9 1   
    13     8    22 1   
    14     9    10 1   
    15     9    23 1   
    16     9    24 1   
    17    10    11 1   
    18    11    12 1   
    19    11    17 1   
    20    11    25 1   
    21    12    13 1   
    22    12    14 1   
    23    12    26 1   
    24    13    27 1   
    25    14    15 1   
    26    14    16 1   
    27    14    28 1   
    28    15    29 1   
    29    16    17 1   
    30    16    18 1   
    31    16    30 1   
    32    18    19 1   
    33    18    31 1   
    34    18    32 1   
    35    19    33 1   
@<TRIPOS>SUBSTRUCTURE
     1 HPR         1 TEMP              0 ****  ****    0 ROOT
