@<TRIPOS>MOLECULE
HPS
   16    16     1     0     0
SMALL
bcc


@<TRIPOS>ATOM
      1 C1          -1.0980     0.3420    -2.5840 ca         1 HPS      -0.115500
      2 C2           0.0150     0.3360    -3.4160 ca         1 HPS      -0.263000
      3 C3           1.2460    -0.0250    -2.8810 ca         1 HPS      -0.115500
      4 C4           1.3600    -0.3680    -1.5420 ca         1 HPS      -0.230000
      5 C5           0.2430    -0.3620    -0.6980 ca         1 HPS       0.311100
      6 C6          -0.9950     0.0030    -1.2430 ca         1 HPS      -0.230000
      7 O12          0.3990    -0.7480     0.5690 os         1 HPS      -0.428500
      8 P13         -0.2960     0.1300     1.9210 p5         1 HPS       1.259900
      9 O14          0.4660    -0.5320     3.0530 o          1 HPS      -0.901500
     10 O15         -1.7830    -0.1890     1.8680 o          1 HPS      -0.901500
     11 O16          0.0680     1.5710     1.6240 o          1 HPS      -0.901500
     12 H1          -2.0680     0.6100    -2.9860 ha         1 HPS       0.076000
     13 H2          -0.0750     0.6000    -4.4610 ha         1 HPS       0.075000
     14 H3           2.1280    -0.0360    -3.5110 ha         1 HPS       0.076000
     15 H4           2.3230    -0.6560    -1.1360 ha         1 HPS       0.144000
     16 H6          -1.8670     0.0130    -0.6040 ha         1 HPS       0.144000
@<TRIPOS>BOND
     1     1     2 ar  
     2     1     6 ar  
     3     1    12 1   
     4     2     3 ar  
     5     2    13 1   
     6     3     4 ar  
     7     3    14 1   
     8     4     5 ar  
     9     4    15 1   
    10     5     6 ar  
    11     5     7 1   
    12     6    16 1   
    13     7     8 1   
    14     8     9 1   
    15     8    10 1   
    16     8    11 1   
@<TRIPOS>SUBSTRUCTURE
     1 HPS         1 TEMP              0 ****  ****    0 ROOT
