@<TRIPOS>MOLECULE
HPS
   16    16     1     0     0
SMALL
No Charge or Current Charge


@<TRIPOS>ATOM
      1 C1          -1.0500     0.5250    -2.5710 ca         1 HPS      -0.097500
      2 C2          -0.0150     0.2150    -3.4680 ca         1 HPS      -0.245000
      3 C3           1.2160    -0.2570    -2.9890 ca         1 HPS      -0.097500
      4 C4           1.4110    -0.4190    -1.6070 ca         1 HPS      -0.212000
      5 C5           0.3830    -0.1130    -0.6970 ca         1 HPS       0.311100
      6 C6          -0.8530     0.3620    -1.1890 ca         1 HPS      -0.212000
      7 O12          0.6450    -0.2960     0.6370 os         1 HPS      -0.428500
      8 P13         -0.3310    -0.0310     1.8930 p5         1 HPS       1.259900
      9 O14          0.3940    -0.3740     3.1490 o          1 HPS      -0.901500
     10 O15         -1.5480    -0.8840     1.7880 o          1 HPS      -0.901500
     11 O16         -0.7290     1.4040     1.9410 o          1 HPS      -0.901500
     12 H1          -2.0030     0.8900    -2.9460 ha         1 HPS       0.058000
     13 H2          -0.1690     0.3410    -4.5370 ha         1 HPS       0.057000
     14 H3           2.0170    -0.4970    -3.6850 ha         1 HPS       0.058000
     15 H4           2.3640    -0.7850    -1.2340 ha         1 HPS       0.126000
     16 H6          -1.6660     0.6070    -0.5130 ha         1 HPS       0.126000
@<TRIPOS>BOND
     1     1     2 ar  
     2     1     6 ar  
     3     1    12 1   
     4     2     3 ar  
     5     2    13 1   
     6     3     4 ar  
     7     3    14 1   
     8     4     5 ar  
     9     4    15 1   
    10     5     6 ar  
    11     5     7 1   
    12     6    16 1   
    13     7     8 1   
    14     8     9 1   
    15     8    10 1   
    16     8    11 1   
@<TRIPOS>SUBSTRUCTURE
     1 HPS         1 TEMP              0 ****  ****    0 ROOT
