@<TRIPOS>MOLECULE
HPT
   25    25     1     0     0
SMALL
No Charge or Current Charge


@<TRIPOS>ATOM
      1 O2           2.0080    -0.4020     2.8380 o          1 HPT      -0.529000
      2 C3           1.1210     0.2360     0.6980 cc         1 HPT      -0.260400
      3 C4           2.5220     0.3730     0.1330 c3         1 HPT      -0.026900
      4 C5          -0.0490     0.4720     0.0030 cd         1 HPT       0.099400
      5 C1          -1.3890    -0.0950     1.9590 c          1 HPT       0.617000
      6 N1          -1.2450     0.2920     0.6630 ns         1 HPT      -0.518600
      7 C2           1.0440    -0.1810     2.1230 c          1 HPT       0.589200
      8 N2          -0.2220    -0.3050     2.6090 ns         1 HPT      -0.467500
      9 O3          -0.3700    -0.9890    -4.7380 oh         1 HPT      -0.658000
     10 C11         -0.1750     0.9170    -1.4360 c3         1 HPT      -0.056200
     11 C12         -0.2240    -0.2730    -2.4200 c3         1 HPT      -0.081400
     12 C13         -0.3290     0.1650    -3.8940 c3         1 HPT       0.164600
     13 H43          3.1700    -0.4500     0.4610 hc         1 HPT       0.048700
     14 H42          2.5280     0.3590    -0.9620 hc         1 HPT       0.048700
     15 H41          2.9820     1.3130     0.4580 hc         1 HPT       0.048700
     16 H1          -2.1260     0.4490     0.1860 hn         1 HPT       0.459000
     17 H2          -0.2990    -0.5890     3.5720 hn         1 HPT       0.344500
     18 H3          -0.4360    -0.6630    -5.6640 ho         1 HPT       0.447000
     19 H112        -1.0770     1.5280    -1.5690 hc         1 HPT       0.062700
     20 H111         0.6630     1.5730    -1.7010 hc         1 HPT       0.062700
     21 H122         0.6780    -0.8850    -2.2910 hc         1 HPT       0.063700
     22 H121        -1.0810    -0.9120    -2.1730 hc         1 HPT       0.063700
     23 H132        -1.2360     0.7680    -4.0290 h1         1 HPT       0.017200
     24 H131         0.5360     0.7920    -4.1480 h1         1 HPT       0.017200
     25 O1          -2.4760    -0.2370     2.4840 o          1 HPT      -0.556000
@<TRIPOS>BOND
     1     1     7 2   
     2     2     3 1   
     3     2     4 2   
     4     2     7 1   
     5     3    13 1   
     6     3    14 1   
     7     3    15 1   
     8     4     6 1   
     9     4    10 1   
    10     5     6 1   
    11     5     8 1   
    12     5    25 2   
    13     6    16 1   
    14     7     8 1   
    15     8    17 1   
    16     9    12 1   
    17     9    18 1   
    18    10    11 1   
    19    10    19 1   
    20    10    20 1   
    21    11    12 1   
    22    11    21 1   
    23    11    22 1   
    24    12    23 1   
    25    12    24 1   
@<TRIPOS>SUBSTRUCTURE
     1 HPT         1 TEMP              0 ****  ****    0 ROOT
