@<TRIPOS>MOLECULE
HPT
   25    25     1     0     0
SMALL
abcg2


@<TRIPOS>ATOM
      1 O2           1.9960    -0.5210     2.7580 o          1 HPT      -0.529000
      2 C3           1.1220     0.2340     0.6830 cc         1 HPT      -0.260400
      3 C4           2.4720     0.4180     0.0570 c3         1 HPT      -0.026900
      4 C5          -0.0330     0.4890     0.0230 cd         1 HPT       0.099400
      5 C1          -1.4200    -0.1520     1.9000 c          1 HPT       0.617000
      6 N1          -1.2490     0.2980     0.6230 ns         1 HPT      -0.518600
      7 C2           1.0420    -0.2500     2.0490 c          1 HPT       0.589200
      8 N2          -0.2420    -0.4040     2.5480 ns         1 HPT      -0.467500
      9 O3          -0.4640    -0.9310    -4.6240 oh         1 HPT      -0.658000
     10 C11         -0.0930     0.9310    -1.4030 c3         1 HPT      -0.056200
     11 C12         -0.2430    -0.2630    -2.3520 c3         1 HPT      -0.081400
     12 C13         -0.2960     0.1980    -3.7960 c3         1 HPT       0.164600
     13 H43          3.2570     0.2550     0.7900 hc         1 HPT       0.048700
     14 H42          2.6410    -0.2840    -0.7610 hc         1 HPT       0.048700
     15 H41          2.6030     1.4240    -0.3430 hc         1 HPT       0.048700
     16 H1          -2.0910     0.5060     0.1050 hn         1 HPT       0.459000
     17 H2          -0.3220    -0.7410     3.4990 hn         1 HPT       0.344500
     18 H3          -0.4750    -0.6330    -5.5380 ho         1 HPT       0.447000
     19 H112        -0.9320     1.6190    -1.5380 hc         1 HPT       0.062700
     20 H111         0.8100     1.4890    -1.6490 hc         1 HPT       0.062700
     21 H122         0.5970    -0.9500    -2.2150 hc         1 HPT       0.063700
     22 H121        -1.1550    -0.8150    -2.1110 hc         1 HPT       0.063700
     23 H132        -1.1220     0.9120    -3.9170 h1         1 HPT       0.017200
     24 H131         0.6280     0.7400    -4.0370 h1         1 HPT       0.017200
     25 O1          -2.5100    -0.3120     2.4120 o          1 HPT      -0.556000
@<TRIPOS>BOND
     1     1     7 2   
     2     2     3 1   
     3     2     4 2   
     4     2     7 1   
     5     3    13 1   
     6     3    14 1   
     7     3    15 1   
     8     4     6 1   
     9     4    10 1   
    10     5     6 1   
    11     5     8 1   
    12     5    25 2   
    13     6    16 1   
    14     7     8 1   
    15     8    17 1   
    16     9    12 1   
    17     9    18 1   
    18    10    11 1   
    19    10    19 1   
    20    10    20 1   
    21    11    12 1   
    22    11    21 1   
    23    11    22 1   
    24    12    23 1   
    25    12    24 1   
@<TRIPOS>SUBSTRUCTURE
     1 HPT         1 TEMP              0 ****  ****    0 ROOT
