@<TRIPOS>MOLECULE
HPU
   41    43     1     0     0
SMALL
No Charge or Current Charge


@<TRIPOS>ATOM
      1 C14          1.7290     0.2450    -0.4800 cc         1 HPU      -0.290000
      2 C11         -0.5100     0.4670    -2.4170 ca         1 HPU      -0.082000
      3 C7          -3.1080     0.1770    -1.3640 ca         1 HPU       0.228000
      4 C8          -1.9780    -0.1990    -0.6050 ca         1 HPU      -0.039000
      5 C9          -2.9200     0.6800    -2.6600 ca         1 HPU      -0.126000
      6 C10         -1.6280     0.8310    -3.1830 ca         1 HPU      -0.101000
      7 C12         -0.6640    -0.0740    -1.1190 ca         1 HPU      -0.056800
      8 C13          0.5370    -0.4400    -0.3100 cd         1 HPU       0.153400
      9 C1          -4.3290     1.5230     1.4270 c3         1 HPU      -0.384100
     10 S2          -4.9920     0.0520     0.6730 s6         1 HPU       1.187100
     11 O3          -4.4160    -1.1310     1.3140 o          1 HPU      -0.522000
     12 O4          -6.4420     0.1990     0.5450 o          1 HPU      -0.522000
     13 N15          0.5050    -1.5670     0.5300 n          1 HPU      -0.119500
     14 O16         -0.6160    -2.4850     0.5310 oh         1 HPU      -0.443100
     15 C18          1.6150    -1.9360     1.3340 c          1 HPU       0.538200
     16 O19          1.5870    -2.8830     2.1120 o          1 HPU      -0.583000
     17 C20          2.8240    -1.1240     1.1590 cd         1 HPU      -0.320200
     18 C21          2.9190    -0.0940     0.2490 cc         1 HPU       0.090800
     19 C22          4.1890     0.6690     0.1910 ca         1 HPU      -0.068800
     20 C23          5.4260     0.1020     0.5940 ca         1 HPU      -0.087500
     21 C24          6.6190     0.8420     0.5240 ca         1 HPU      -0.113500
     22 C25          6.6070     2.1610     0.0500 ca         1 HPU      -0.096000
     23 C26          5.3980     2.7380    -0.3590 ca         1 HPU      -0.113500
     24 C27          4.2030     2.0000    -0.2940 ca         1 HPU      -0.087500
     25 H1           1.7710     1.0840    -1.1610 ha         1 HPU       0.206000
     26 H2           0.4760     0.5750    -2.8630 ha         1 HPU       0.127000
     27 H3          -2.1190    -0.5560     0.4080 ha         1 HPU       0.159000
     28 H4          -3.7770     0.9680    -3.2640 ha         1 HPU       0.115000
     29 H5          -1.4920     1.2270    -4.1880 ha         1 HPU       0.123000
     30 H6          -3.2380     1.4470     1.4120 h1         1 HPU       0.102700
     31 H7          -4.6770     2.3800     0.8420 h1         1 HPU       0.102700
     32 H8          -4.7090     1.5630     2.4530 h1         1 HPU       0.102700
     33 H9          -5.1640     0.4680    -1.4500 hn         1 HPU       0.488000
     34 H10         -0.3680    -3.1800    -0.1200 ho         1 HPU       0.497000
     35 H11          3.6260    -1.4160     1.8210 ha         1 HPU       0.217000
     36 H12          5.4910    -0.9270     0.9320 ha         1 HPU       0.118000
     37 H13          7.5580     0.3850     0.8320 ha         1 HPU       0.116500
     38 H14          7.5320     2.7320    -0.0030 ha         1 HPU       0.116000
     39 H15          5.3830     3.7620    -0.7260 ha         1 HPU       0.116500
     40 H16          3.2850     2.4930    -0.5990 ha         1 HPU       0.118000
     41 N5          -4.4190     0.0770    -0.8870 nu         1 HPU      -0.869100
@<TRIPOS>BOND
     1     1     8 2   
     2     1    18 1   
     3     1    25 1   
     4     2     6 ar  
     5     2     7 ar  
     6     2    26 1   
     7     3     4 ar  
     8     3     5 ar  
     9     3    41 1   
    10     4     7 ar  
    11     4    27 1   
    12     5     6 ar  
    13     5    28 1   
    14     6    29 1   
    15     7     8 1   
    16     8    13 1   
    17     9    10 1   
    18     9    30 1   
    19     9    31 1   
    20     9    32 1   
    21    10    11 2   
    22    10    12 2   
    23    10    41 1   
    24    13    14 1   
    25    13    15 1   
    26    14    34 1   
    27    15    16 2   
    28    15    17 1   
    29    17    18 2   
    30    17    35 1   
    31    18    19 1   
    32    19    20 ar  
    33    19    24 ar  
    34    20    21 ar  
    35    20    36 1   
    36    21    22 ar  
    37    21    37 1   
    38    22    23 ar  
    39    22    38 1   
    40    23    24 ar  
    41    23    39 1   
    42    24    40 1   
    43    33    41 1   
@<TRIPOS>SUBSTRUCTURE
     1 HPU         1 TEMP              0 ****  ****    0 ROOT
