@<TRIPOS>MOLECULE
HPU
   41    43     1     0     0
SMALL
bcc


@<TRIPOS>ATOM
      1 C14          1.7200     0.1170    -0.4430 cc         1 HPU      -0.240000
      2 C11         -0.6380     0.4400    -2.3680 ca         1 HPU      -0.100000
      3 C7          -3.0040     0.0460    -0.9700 ca         1 HPU       0.089600
      4 C8          -1.8160    -0.4730    -0.4720 ca         1 HPU      -0.057000
      5 C9          -3.0130     0.7490    -2.1720 ca         1 HPU      -0.144000
      6 C10         -1.8320     0.9330    -2.8720 ca         1 HPU      -0.119000
      7 C12         -0.6280    -0.2630    -1.1660 ca         1 HPU      -0.056800
      8 C13          0.6640    -0.7320    -0.6280 cd         1 HPU       0.153400
      9 C1          -4.5830     2.3800     0.7070 c3         1 HPU      -0.273300
     10 S2          -4.5010     0.6620     1.1520 s6         1 HPU       1.217900
     11 O3          -3.3460     0.4680     2.0100 o          1 HPU      -0.592800
     12 O4          -5.8140     0.2290     1.5970 o          1 HPU      -0.592800
     13 N15          0.8270    -2.0310    -0.3070 n          1 HPU      -0.186500
     14 O16         -0.1910    -2.8940    -0.5340 oh         1 HPU      -0.404100
     15 C18          1.9830    -2.6030     0.2060 c          1 HPU       0.680700
     16 O19          1.9560    -3.8180     0.4370 o          1 HPU      -0.658500
     17 C20          3.0560    -1.6950     0.3960 cd         1 HPU      -0.270200
     18 C21          2.9420    -0.3650     0.0730 cc         1 HPU       0.090800
     19 C22          4.0740     0.5610     0.2680 ca         1 HPU      -0.068800
     20 C23          5.3860     0.1360     0.0510 ca         1 HPU      -0.105500
     21 C24          6.4490     1.0040     0.2410 ca         1 HPU      -0.131500
     22 C25          6.2200     2.3100     0.6550 ca         1 HPU      -0.114000
     23 C26          4.9180     2.7430     0.8720 ca         1 HPU      -0.131500
     24 C27          3.8530     1.8770     0.6760 ca         1 HPU      -0.105500
     25 H1           1.5940     1.1580    -0.7020 ha         1 HPU       0.156000
     26 H2           0.2840     0.5880    -2.9150 ha         1 HPU       0.145000
     27 H3          -1.8250    -1.0330     0.4510 ha         1 HPU       0.177000
     28 H4          -3.9430     1.1470    -2.5580 ha         1 HPU       0.133000
     29 H5          -1.8400     1.4710    -3.8100 ha         1 HPU       0.141000
     30 H6          -3.6290     2.6940     0.2880 h1         1 HPU       0.102700
     31 H7          -5.3820     2.5250    -0.0170 h1         1 HPU       0.102700
     32 H8          -4.7910     2.9490     1.6120 h1         1 HPU       0.102700
     33 H9          -5.0410    -0.1910    -0.8520 hn         1 HPU       0.432800
     34 H10          0.1870    -3.7440    -0.2200 ho         1 HPU       0.458000
     35 H11          3.9660    -2.0970     0.8200 ha         1 HPU       0.167000
     36 H12          5.5790    -0.8740    -0.2890 ha         1 HPU       0.136000
     37 H13          7.4590     0.6610     0.0610 ha         1 HPU       0.134500
     38 H14          7.0510     2.9870     0.8050 ha         1 HPU       0.134000
     39 H15          4.7290     3.7580     1.1980 ha         1 HPU       0.134500
     40 H16          2.8460     2.2240     0.8660 ha         1 HPU       0.136000
     41 N5          -4.2140    -0.1700    -0.2640 nu         1 HPU      -0.675500
@<TRIPOS>BOND
     1     1     8 2   
     2     1    18 1   
     3     1    25 1   
     4     2     6 ar  
     5     2     7 ar  
     6     2    26 1   
     7     3     4 ar  
     8     3     5 ar  
     9     3    41 1   
    10     4     7 ar  
    11     4    27 1   
    12     5     6 ar  
    13     5    28 1   
    14     6    29 1   
    15     7     8 1   
    16     8    13 1   
    17     9    10 1   
    18     9    30 1   
    19     9    31 1   
    20     9    32 1   
    21    10    11 2   
    22    10    12 2   
    23    10    41 1   
    24    13    14 1   
    25    13    15 1   
    26    14    34 1   
    27    15    16 2   
    28    15    17 1   
    29    17    18 2   
    30    17    35 1   
    31    18    19 1   
    32    19    20 ar  
    33    19    24 ar  
    34    20    21 ar  
    35    20    36 1   
    36    21    22 ar  
    37    21    37 1   
    38    22    23 ar  
    39    22    38 1   
    40    23    24 ar  
    41    23    39 1   
    42    24    40 1   
    43    33    41 1   
@<TRIPOS>SUBSTRUCTURE
     1 HPU         1 TEMP              0 ****  ****    0 ROOT
