@<TRIPOS>MOLECULE
HPW
   49    51     1     0     0
SMALL
No Charge or Current Charge


@<TRIPOS>ATOM
      1 C14         -3.9640    -1.7590    -2.3610 c3         1 HPW      -0.385100
      2 C7          -1.2910     1.3080     0.0860 ca         1 HPW       0.248500
      3 C8           0.0410     0.9700     0.3710 ca         1 HPW      -0.110000
      4 C9          -2.2530     0.2820    -0.0170 ca         1 HPW      -0.033000
      5 C10         -1.8890    -1.0670     0.1700 ca         1 HPW       0.248500
      6 C1          -3.6770     3.0890     1.6150 c3         1 HPW      -0.385100
      7 S2          -3.0510     3.4590    -0.0100 s6         1 HPW       1.189100
      8 O3          -3.9200     2.8530    -1.0190 o          1 HPW      -0.516250
      9 O4          -2.7080     4.8800    -0.0750 o          1 HPW      -0.516250
     10 N11         -2.8030    -2.1230     0.0810 nu         1 HPW      -0.873600
     11 S13         -4.2840    -2.2060    -0.6680 s6         1 HPW       1.189100
     12 O15         -5.1240    -1.1850    -0.0420 o          1 HPW      -0.516250
     13 O16         -4.6580    -3.6190    -0.6120 o          1 HPW      -0.516250
     14 C17         -0.5530    -1.3790     0.4690 ca         1 HPW      -0.110000
     15 C18          0.4230    -0.3710     0.5730 ca         1 HPW      -0.041800
     16 C19          1.8220    -0.7080     0.8650 cc         1 HPW       0.143400
     17 C20          2.7570    -0.2470    -0.0400 cd         1 HPW      -0.288000
     18 N21          2.1670    -1.4940     1.9600 n          1 HPW      -0.123500
     19 O22          1.1670    -1.9250     2.9160 oh         1 HPW      -0.446100
     20 C24          3.5070    -1.8660     2.1980 c          1 HPW       0.537200
     21 O25          3.8490    -2.5510     3.1560 o          1 HPW      -0.579000
     22 C26          4.4700    -1.3570     1.2160 cc         1 HPW      -0.319200
     23 C27          4.1610    -0.5520     0.1310 cd         1 HPW       0.091800
     24 C28          5.1930    -0.1040    -0.8480 ca         1 HPW      -0.072800
     25 C29          4.9290     0.9560    -1.7500 ca         1 HPW      -0.087000
     26 C30          5.8980     1.3840    -2.6740 ca         1 HPW      -0.111500
     27 C31          7.1540     0.7630    -2.7180 ca         1 HPW      -0.093000
     28 C32          7.4380    -0.2870    -1.8350 ca         1 HPW      -0.111500
     29 C33          6.4710    -0.7160    -0.9080 ca         1 HPW      -0.087000
     30 H1          -3.2250    -2.4640    -2.7550 h1         1 HPW       0.104033
     31 H2          -4.9120    -1.8340    -2.9030 h1         1 HPW       0.104033
     32 H3          -3.5820    -0.7340    -2.3740 h1         1 HPW       0.104033
     33 H4           0.7880     1.7560     0.4490 ha         1 HPW       0.125500
     34 H5          -3.2790     0.5320    -0.2420 ha         1 HPW       0.176000
     35 H6          -3.8260     2.0080     1.6830 h1         1 HPW       0.104033
     36 H7          -2.9340     3.4350     2.3410 h1         1 HPW       0.104033
     37 H8          -4.6230     3.6260     1.7300 h1         1 HPW       0.104033
     38 H9          -0.8820     3.3520     0.0900 hn         1 HPW       0.490500
     39 H10         -2.4550    -3.0730     0.1290 hn         1 HPW       0.490500
     40 H11         -0.2650    -2.4170     0.6120 ha         1 HPW       0.125500
     41 H12          2.4140     0.3200    -0.8970 ha         1 HPW       0.209000
     42 H13          1.1920    -1.2430     3.6240 ho         1 HPW       0.498000
     43 H14          5.4840    -1.6470     1.4460 ha         1 HPW       0.219000
     44 H15          3.9810     1.4840    -1.7340 ha         1 HPW       0.116500
     45 H16          5.6750     2.2040    -3.3530 ha         1 HPW       0.118000
     46 H17          7.9040     1.0940    -3.4340 ha         1 HPW       0.118000
     47 H18          8.4100    -0.7760    -1.8690 ha         1 HPW       0.118000
     48 H19          6.7290    -1.5480    -0.2620 ha         1 HPW       0.116500
     49 N5          -1.5970     2.6610    -0.0970 nu         1 HPW      -0.873600
@<TRIPOS>BOND
     1     1    11 1   
     2     1    30 1   
     3     1    31 1   
     4     1    32 1   
     5     2     3 ar  
     6     2     4 ar  
     7     2    49 1   
     8     3    15 ar  
     9     3    33 1   
    10     4     5 ar  
    11     4    34 1   
    12     5    10 1   
    13     5    14 ar  
    14     6     7 1   
    15     6    35 1   
    16     6    36 1   
    17     6    37 1   
    18     7     8 2   
    19     7     9 2   
    20     7    49 1   
    21    10    11 1   
    22    10    39 1   
    23    11    12 2   
    24    11    13 2   
    25    14    15 ar  
    26    14    40 1   
    27    15    16 1   
    28    16    17 2   
    29    16    18 1   
    30    17    23 1   
    31    17    41 1   
    32    18    19 1   
    33    18    20 1   
    34    19    42 1   
    35    20    21 2   
    36    20    22 1   
    37    22    23 2   
    38    22    43 1   
    39    23    24 1   
    40    24    25 ar  
    41    24    29 ar  
    42    25    26 ar  
    43    25    44 1   
    44    26    27 ar  
    45    26    45 1   
    46    27    28 ar  
    47    27    46 1   
    48    28    29 ar  
    49    28    47 1   
    50    29    48 1   
    51    38    49 1   
@<TRIPOS>SUBSTRUCTURE
     1 HPW         1 TEMP              0 ****  ****    0 ROOT
