@<TRIPOS>MOLECULE
HPW
   49    51     1     0     0
SMALL
abcg2


@<TRIPOS>ATOM
      1 C14         -2.5200    -3.2230    -2.3970 c3         1 HPW      -0.385100
      2 C7          -1.7500     1.3890    -0.1130 ca         1 HPW       0.248500
      3 C8          -0.4290     1.0790     0.1870 ca         1 HPW      -0.110000
      4 C9          -2.7020     0.3840    -0.2050 ca         1 HPW      -0.033000
      5 C10         -2.3230    -0.9370     0.0030 ca         1 HPW       0.248500
      6 C1          -1.8150     3.8040     2.1830 c3         1 HPW      -0.385100
      7 S2          -2.9780     3.5410     0.8660 s6         1 HPW       1.189100
      8 O3          -4.0130     2.6400     1.3400 o          1 HPW      -0.516250
      9 O4          -3.3390     4.8270     0.2980 o          1 HPW      -0.516250
     10 N11         -3.2990    -1.9590    -0.0820 nu         1 HPW      -0.873600
     11 S13         -3.8770    -2.4220    -1.5770 s6         1 HPW       1.189100
     12 O15         -4.1990    -1.2080    -2.3070 o          1 HPW      -0.516250
     13 O16         -4.9120    -3.4040    -1.3100 o          1 HPW      -0.516250
     14 C17         -1.0060    -1.2540     0.3090 ca         1 HPW      -0.110000
     15 C18         -0.0560    -0.2420     0.4010 ca         1 HPW      -0.041800
     16 C19          1.3630    -0.5420     0.6670 cc         1 HPW       0.143400
     17 C20          2.3610    -0.1360    -0.1750 cd         1 HPW      -0.288000
     18 N21          1.7000    -1.2490     1.7640 n          1 HPW      -0.123500
     19 O22          0.7280    -1.6050     2.6370 oh         1 HPW      -0.446100
     20 C24          2.9870    -1.6150     2.1310 c          1 HPW       0.537200
     21 O25          3.1130    -2.2510     3.1840 o          1 HPW      -0.579000
     22 C26          4.0000    -1.1810     1.2380 cc         1 HPW      -0.319200
     23 C27          3.7070    -0.4550     0.1100 cd         1 HPW       0.091800
     24 C28          4.7770    -0.0100    -0.8030 ca         1 HPW      -0.072800
     25 C29          4.6880     1.2230    -1.4500 ca         1 HPW      -0.087000
     26 C30          5.7000     1.6500    -2.2970 ca         1 HPW      -0.111500
     27 C31          6.8110     0.8470    -2.5180 ca         1 HPW      -0.093000
     28 C32          6.9050    -0.3860    -1.8850 ca         1 HPW      -0.111500
     29 C33          5.8970    -0.8100    -1.0330 ca         1 HPW      -0.087000
     30 H1          -2.2270    -4.1010    -1.8280 h1         1 HPW       0.104033
     31 H2          -2.8570    -3.5160    -3.3900 h1         1 HPW       0.104033
     32 H3          -1.6860    -2.5290    -2.4820 h1         1 HPW       0.104033
     33 H4           0.3070     1.8690     0.2670 ha         1 HPW       0.125500
     34 H5          -3.7280     0.6250    -0.4360 ha         1 HPW       0.176000
     35 H6          -1.4390     2.8470     2.5370 h1         1 HPW       0.104033
     36 H7          -0.9990     4.4240     1.8170 h1         1 HPW       0.104033
     37 H8          -2.3360     4.3160     2.9900 h1         1 HPW       0.104033
     38 H9          -1.4270     3.3210    -0.7540 hn         1 HPW       0.490500
     39 H10         -3.1270    -2.7600     0.5180 hn         1 HPW       0.490500
     40 H11         -0.7250    -2.2890     0.4540 ha         1 HPW       0.125500
     41 H12          2.0890     0.3890    -1.0790 ha         1 HPW       0.209000
     42 H13          1.2370    -2.0960     3.3180 ho         1 HPW       0.498000
     43 H14          5.0200    -1.4210     1.5060 ha         1 HPW       0.219000
     44 H15          3.8360     1.8690    -1.2770 ha         1 HPW       0.116500
     45 H16          5.6200     2.6130    -2.7830 ha         1 HPW       0.118000
     46 H17          7.5990     1.1790    -3.1810 ha         1 HPW       0.118000
     47 H18          7.7610    -1.0240    -2.0580 ha         1 HPW       0.118000
     48 H19          5.9740    -1.7810    -0.5590 ha         1 HPW       0.116500
     49 N5          -2.1390     2.7340    -0.3290 nu         1 HPW      -0.873600
@<TRIPOS>BOND
     1     1    11 1   
     2     1    30 1   
     3     1    31 1   
     4     1    32 1   
     5     2     3 ar  
     6     2     4 ar  
     7     2    49 1   
     8     3    15 ar  
     9     3    33 1   
    10     4     5 ar  
    11     4    34 1   
    12     5    10 1   
    13     5    14 ar  
    14     6     7 1   
    15     6    35 1   
    16     6    36 1   
    17     6    37 1   
    18     7     8 2   
    19     7     9 2   
    20     7    49 1   
    21    10    11 1   
    22    10    39 1   
    23    11    12 2   
    24    11    13 2   
    25    14    15 ar  
    26    14    40 1   
    27    15    16 1   
    28    16    17 2   
    29    16    18 1   
    30    17    23 1   
    31    17    41 1   
    32    18    19 1   
    33    18    20 1   
    34    19    42 1   
    35    20    21 2   
    36    20    22 1   
    37    22    23 2   
    38    22    43 1   
    39    23    24 1   
    40    24    25 ar  
    41    24    29 ar  
    42    25    26 ar  
    43    25    44 1   
    44    26    27 ar  
    45    26    45 1   
    46    27    28 ar  
    47    27    46 1   
    48    28    29 ar  
    49    28    47 1   
    50    29    48 1   
    51    38    49 1   
@<TRIPOS>SUBSTRUCTURE
     1 HPW         1 TEMP              0 ****  ****    0 ROOT
