@<TRIPOS>MOLECULE
HPX
   25    25     1     0     0
SMALL
abcg2


@<TRIPOS>ATOM
      1 CB3         -4.3080    -1.7870    -0.0200 ca         1 HPX      -0.134500
      2 CB4         -5.4220    -0.9610     0.0160 ca         1 HPX      -0.106000
      3 CB5         -5.2540     0.4190     0.0260 ca         1 HPX      -0.134500
      4 CB6         -3.9820     0.9650    -0.0010 ca         1 HPX      -0.069500
      5 CB1         -2.8510     0.1440    -0.0330 ca         1 HPX      -0.141600
      6 CB2         -3.0330    -1.2400    -0.0430 ca         1 HPX      -0.069500
      7 CA6         -1.5040     0.7970    -0.0570 c          1 HPX       0.591900
      8 OA4         -1.4350     2.0190    -0.1170 o          1 HPX      -0.586100
      9 CA5         -0.3100    -0.0400    -0.0030 ce         1 HPX      -0.434200
     10 CA4          0.9320     0.4950    -0.0230 cf         1 HPX       0.010000
     11 CA3          2.1330    -0.2750     0.0320 cf         1 HPX      -0.363000
     12 CA2          3.3760     0.2570     0.0120 ce         1 HPX       0.077900
     13 OA3          3.6140     1.5580    -0.0630 oh         1 HPX      -0.555100
     14 CA1          4.6600    -0.5740     0.0740 c          1 HPX       0.680200
     15 OA2          5.6850     0.1430     0.0440 o          1 HPX      -0.689000
     16 OA1          4.5710    -1.8030     0.1410 o          1 HPX      -0.689000
     17 HB3         -4.4280    -2.8620    -0.0300 ha         1 HPX       0.104000
     18 HB4         -6.4160    -1.3880     0.0370 ha         1 HPX       0.100000
     19 HB5         -6.1170     1.0710     0.0530 ha         1 HPX       0.104000
     20 HB6         -3.8620     2.0390     0.0040 ha         1 HPX       0.126500
     21 HB2         -2.1900    -1.9150    -0.0710 ha         1 HPX       0.126500
     22 HA5         -0.4110    -1.1150     0.0610 ha         1 HPX       0.172000
     23 HA4          1.0220     1.5750    -0.0830 ha         1 HPX       0.179000
     24 H1           2.0590    -1.3530     0.0940 ha         1 HPX       0.200000
     25 HA3          4.5980     1.6020    -0.0570 ho         1 HPX       0.502000
@<TRIPOS>BOND
     1     1     2 ar  
     2     1     6 ar  
     3     1    17 1   
     4     2     3 ar  
     5     2    18 1   
     6     3     4 ar  
     7     3    19 1   
     8     4     5 ar  
     9     4    20 1   
    10     5     6 ar  
    11     5     7 1   
    12     6    21 1   
    13     7     8 2   
    14     7     9 1   
    15     9    10 2   
    16     9    22 1   
    17    10    11 1   
    18    10    23 1   
    19    11    12 2   
    20    11    24 1   
    21    12    13 1   
    22    12    14 1   
    23    13    25 1   
    24    14    15 1   
    25    14    16 1   
@<TRIPOS>SUBSTRUCTURE
     1 HPX         1 TEMP              0 ****  ****    0 ROOT
