@<TRIPOS>MOLECULE
HPX
   25    25     1     0     0
SMALL
No Charge or Current Charge


@<TRIPOS>ATOM
      1 CB3         -4.3280    -1.8130    -0.1710 ca         1 HPX      -0.134500
      2 CB4         -5.4670    -1.0220     0.0420 ca         1 HPX      -0.106000
      3 CB5         -5.3320     0.3660     0.1880 ca         1 HPX      -0.134500
      4 CB6         -4.0600     0.9620     0.1280 ca         1 HPX      -0.069500
      5 CB1         -2.9000     0.1770    -0.0720 ca         1 HPX      -0.141600
      6 CB2         -3.0530    -1.2220    -0.2300 ca         1 HPX      -0.069500
      7 CA6         -1.5440     0.8590    -0.1330 c          1 HPX       0.591900
      8 OA4         -1.4670     2.0670    -0.3280 o          1 HPX      -0.586100
      9 CA5         -0.2890     0.0630     0.0310 ce         1 HPX      -0.434200
     10 CA4          0.9680     0.5740    -0.0730 cf         1 HPX       0.010000
     11 CA3          2.1760    -0.2220     0.1060 cf         1 HPX      -0.363000
     12 CA2          3.4620     0.2310     0.0140 ce         1 HPX       0.077900
     13 OA3          3.7070     1.5450    -0.2700 oh         1 HPX      -0.555100
     14 CA1          4.7140    -0.6390     0.2100 c          1 HPX       0.680200
     15 OA2          5.8000    -0.0820     0.0940 o          1 HPX      -0.689000
     16 OA1          4.5930    -1.8300     0.4680 o          1 HPX      -0.689000
     17 HB3         -4.4320    -2.8890    -0.2950 ha         1 HPX       0.104000
     18 HB4         -6.4510    -1.4830     0.0870 ha         1 HPX       0.100000
     19 HB5         -6.2130     0.9830     0.3480 ha         1 HPX       0.104000
     20 HB6         -3.9790     2.0410     0.2460 ha         1 HPX       0.126500
     21 HB2         -2.2000    -1.8660    -0.4220 ha         1 HPX       0.126500
     22 HA5         -0.3950    -0.9900     0.2710 ha         1 HPX       0.172000
     23 HA4          1.0930     1.6370    -0.3040 ha         1 HPX       0.179000
     24 H1           2.0300    -1.2790     0.3350 ha         1 HPX       0.200000
     25 HA3          4.6930     1.6040    -0.2780 ho         1 HPX       0.502000
@<TRIPOS>BOND
     1     1     2 ar  
     2     1     6 ar  
     3     1    17 1   
     4     2     3 ar  
     5     2    18 1   
     6     3     4 ar  
     7     3    19 1   
     8     4     5 ar  
     9     4    20 1   
    10     5     6 ar  
    11     5     7 1   
    12     6    21 1   
    13     7     8 2   
    14     7     9 1   
    15     9    10 2   
    16     9    22 1   
    17    10    11 1   
    18    10    23 1   
    19    11    12 2   
    20    11    24 1   
    21    12    13 1   
    22    12    14 1   
    23    13    25 1   
    24    14    15 1   
    25    14    16 1   
@<TRIPOS>SUBSTRUCTURE
     1 HPX         1 TEMP              0 ****  ****    0 ROOT
