@<TRIPOS>MOLECULE
HPY
   14    14     1     0     0
SMALL
No Charge or Current Charge


@<TRIPOS>ATOM
      1 N1           1.0460    -0.1860    -1.0960 ns         1 HPY      -0.424100
      2 C2          -0.3040     0.0120    -1.2220 c          1 HPY       0.618000
      3 O2          -0.8790    -0.0800    -2.2910 o          1 HPY      -0.578000
      4 N3          -0.9660     0.3190    -0.0620 ns         1 HPY      -0.498900
      5 C4          -0.3790     0.4690     1.2550 c6         1 HPY       0.398900
      6 O4          -0.9920    -0.4790     2.0980 oh         1 HPY      -0.690000
      7 C5           1.1060     0.1940     1.2300 c2         1 HPY      -0.378200
      8 C6           1.7560    -0.1080     0.1030 c2         1 HPY      -0.010400
      9 H1           1.5380    -0.4150    -1.9520 hn         1 HPY       0.339500
     10 H3          -1.9640     0.4420    -0.1420 hn         1 HPY       0.329500
     11 H4          -0.5730     1.4900     1.6210 h2         1 HPY       0.046700
     12 HO4         -0.5290    -0.3970     2.9580 ho         1 HPY       0.456000
     13 H5           1.6380     0.2750     2.1780 ha         1 HPY       0.196000
     14 H6           2.8300    -0.3030     0.0330 h4         1 HPY       0.195000
@<TRIPOS>BOND
     1     1     2 1   
     2     1     8 1   
     3     1     9 1   
     4     2     3 2   
     5     2     4 1   
     6     4     5 1   
     7     4    10 1   
     8     5     6 1   
     9     5     7 1   
    10     5    11 1   
    11     6    12 1   
    12     7     8 2   
    13     7    13 1   
    14     8    14 1   
@<TRIPOS>SUBSTRUCTURE
     1 HPY         1 TEMP              0 ****  ****    0 ROOT
