@<TRIPOS>MOLECULE
HPY
   14    14     1     0     0
SMALL
abcg2


@<TRIPOS>ATOM
      1 N1           1.0110    -0.3390    -1.0420 ns         1 HPY      -0.424100
      2 C2          -0.3150    -0.0180    -1.1730 c          1 HPY       0.618000
      3 O2          -0.9220    -0.1730    -2.2180 o          1 HPY      -0.578000
      4 N3          -0.8720     0.5360    -0.0610 ns         1 HPY      -0.498900
      5 C4          -0.3470     0.4580     1.2690 c6         1 HPY       0.398900
      6 O4          -0.9300    -0.6690     1.9010 oh         1 HPY      -0.690000
      7 C5           1.1430     0.3600     1.2110 c2         1 HPY      -0.378200
      8 C6           1.7340    -0.0680     0.0990 c2         1 HPY      -0.010400
      9 H1           1.4840    -0.6620    -1.8690 hn         1 HPY       0.339500
     10 H3          -1.8530     0.7520    -0.1500 hn         1 HPY       0.329500
     11 H4          -0.6520     1.3670     1.7990 h2         1 HPY       0.046700
     12 HO4         -0.6670    -0.6670     2.8270 ho         1 HPY       0.456000
     13 H5           1.7130     0.5720     2.1040 ha         1 HPY       0.196000
     14 H6           2.8010    -0.2160     0.0150 h4         1 HPY       0.195000
@<TRIPOS>BOND
     1     1     2 1   
     2     1     8 1   
     3     1     9 1   
     4     2     3 2   
     5     2     4 1   
     6     4     5 1   
     7     4    10 1   
     8     5     6 1   
     9     5     7 1   
    10     5    11 1   
    11     6    12 1   
    12     7     8 2   
    13     7    13 1   
    14     8    14 1   
@<TRIPOS>SUBSTRUCTURE
     1 HPY         1 TEMP              0 ****  ****    0 ROOT
