@<TRIPOS>MOLECULE
HPZ
   25    25     1     0     0
SMALL
abcg2


@<TRIPOS>ATOM
      1 CB3          4.4250    -1.5340    -0.1140 ca         1 HPZ      -0.134000
      2 CB4          5.3940    -0.5620     0.0950 ca         1 HPZ      -0.109000
      3 CB5          5.0180     0.7690     0.2300 ca         1 HPZ      -0.134000
      4 CB6          3.6810     1.1250     0.1520 ca         1 HPZ      -0.072500
      5 CB1          2.6960     0.1550    -0.0430 ca         1 HPZ      -0.138600
      6 CB2          3.0850    -1.1790    -0.1760 ca         1 HPZ      -0.072500
      7 CA6          1.2680     0.5900    -0.1320 c          1 HPZ       0.588900
      8 OA4          1.0140     1.7620    -0.3820 o          1 HPZ      -0.569100
      9 CA5          0.2290    -0.4040     0.1050 ce         1 HPZ      -0.443200
     10 CA4         -1.0850    -0.1030    -0.0200 cf         1 HPZ       0.029000
     11 CA3         -2.1270    -1.0480     0.2200 cf         1 HPZ      -0.369000
     12 CA2         -3.4580    -0.8150     0.1100 ce         1 HPZ       0.083900
     13 OA3         -4.3230    -1.7890     0.3570 oh         1 HPZ      -0.567100
     14 CA1         -4.1870     0.4830    -0.2780 c          1 HPZ       0.679200
     15 OA2         -3.5460     1.5040    -0.5350 o          1 HPZ      -0.683500
     16 OA1         -5.4290     0.3240    -0.2780 o          1 HPZ      -0.683500
     17 HB3          4.7100    -2.5710    -0.2310 ha         1 HPZ       0.102000
     18 HB4          6.4390    -0.8390     0.1510 ha         1 HPZ       0.098000
     19 HB5          5.7690     1.5310     0.3940 ha         1 HPZ       0.102000
     20 HB6          3.3970     2.1650     0.2520 ha         1 HPZ       0.125500
     21 HB2          2.3500    -1.9530    -0.3490 ha         1 HPZ       0.125500
     22 HA5          0.5180    -1.4020     0.4120 ha         1 HPZ       0.163000
     23 HA4         -1.3690     0.8960    -0.3210 ha         1 HPZ       0.221000
     24 HA3         -1.8250    -2.0490     0.5180 ha         1 HPZ       0.153000
     25 HOA3        -5.1920    -1.3450     0.2050 ho         1 HPZ       0.505000
@<TRIPOS>BOND
     1     1     2 ar  
     2     1     6 ar  
     3     1    17 1   
     4     2     3 ar  
     5     2    18 1   
     6     3     4 ar  
     7     3    19 1   
     8     4     5 ar  
     9     4    20 1   
    10     5     6 ar  
    11     5     7 1   
    12     6    21 1   
    13     7     8 2   
    14     7     9 1   
    15     9    10 2   
    16     9    22 1   
    17    10    11 1   
    18    10    23 1   
    19    11    12 2   
    20    11    24 1   
    21    12    13 1   
    22    12    14 1   
    23    13    25 1   
    24    14    15 1   
    25    14    16 1   
@<TRIPOS>SUBSTRUCTURE
     1 HPZ         1 TEMP              0 ****  ****    0 ROOT
