@<TRIPOS>MOLECULE
HPZ
   25    25     1     0     0
SMALL
No Charge or Current Charge


@<TRIPOS>ATOM
      1 CB3          4.4730    -1.5680    -0.0680 ca         1 HPZ      -0.134000
      2 CB4          5.4760    -0.6030     0.1080 ca         1 HPZ      -0.109000
      3 CB5          5.1280     0.7520     0.2040 ca         1 HPZ      -0.134000
      4 CB6          3.7800     1.1420     0.1290 ca         1 HPZ      -0.072500
      5 CB1          2.7540     0.1810    -0.0350 ca         1 HPZ      -0.138600
      6 CB2          3.1230    -1.1830    -0.1420 ca         1 HPZ      -0.072500
      7 CA6          1.3090     0.6420    -0.1130 c          1 HPZ       0.588900
      8 OA4          1.0460     1.8160    -0.3430 o          1 HPZ      -0.569100
      9 CA5          0.1910    -0.3320     0.0790 ce         1 HPZ      -0.443200
     10 CA4         -1.1300    -0.0220    -0.0360 cf         1 HPZ       0.029000
     11 CA3         -2.1920    -1.0020     0.1750 cf         1 HPZ      -0.369000
     12 CA2         -3.5490    -0.8280     0.0910 ce         1 HPZ       0.083900
     13 OA3         -4.3400    -1.9150     0.3360 oh         1 HPZ      -0.567100
     14 CA1         -4.3340     0.4550    -0.2490 c          1 HPZ       0.679200
     15 OA2         -3.7530     1.5040    -0.4910 o          1 HPZ      -0.683500
     16 OA1         -5.5560     0.3550    -0.2610 o          1 HPZ      -0.683500
     17 HB3          4.7420    -2.6180    -0.1530 ha         1 HPZ       0.102000
     18 HB4          6.5200    -0.9040     0.1640 ha         1 HPZ       0.098000
     19 HB5          5.9030     1.5040     0.3360 ha         1 HPZ       0.102000
     20 HB6          3.5330     2.1990     0.2080 ha         1 HPZ       0.125500
     21 HB2          2.3790    -1.9580    -0.3040 ha         1 HPZ       0.125500
     22 HA5          0.4560    -1.3490     0.3500 ha         1 HPZ       0.163000
     23 HA4         -1.4020     1.0050    -0.2970 ha         1 HPZ       0.221000
     24 HA3         -1.8480    -2.0040     0.4320 ha         1 HPZ       0.153000
     25 HOA3        -5.2570    -1.5600     0.2210 ho         1 HPZ       0.505000
@<TRIPOS>BOND
     1     1     2 ar  
     2     1     6 ar  
     3     1    17 1   
     4     2     3 ar  
     5     2    18 1   
     6     3     4 ar  
     7     3    19 1   
     8     4     5 ar  
     9     4    20 1   
    10     5     6 ar  
    11     5     7 1   
    12     6    21 1   
    13     7     8 2   
    14     7     9 1   
    15     9    10 2   
    16     9    22 1   
    17    10    11 1   
    18    10    23 1   
    19    11    12 2   
    20    11    24 1   
    21    12    13 1   
    22    12    14 1   
    23    13    25 1   
    24    14    15 1   
    25    14    16 1   
@<TRIPOS>SUBSTRUCTURE
     1 HPZ         1 TEMP              0 ****  ****    0 ROOT
