@<TRIPOS>MOLECULE
HQ0
   24    24     1     0     0
SMALL
No Charge or Current Charge


@<TRIPOS>ATOM
      1 O01         40.4010     8.2920    40.5740 o          1 HQ0      -0.698500
      2 C02         40.0830     9.2510    41.2700 c          1 HQ0       0.635500
      3 O03         40.8610    10.1930    41.4150 o          1 HQ0      -0.698500
      4 C04         38.7060     9.3020    41.9540 cc         1 HQ0       0.370000
      5 N05         38.2930    10.3420    42.7000 nd         1 HQ0      -0.676000
      6 C06         37.0230    10.0580    43.1320 cd         1 HQ0       0.212900
      7 C07         36.6180     8.8400    42.6680 cc         1 HQ0      -0.272300
      8 C08         35.2970     8.1480    42.8960 c3         1 HQ0       0.004200
      9 N09         37.6810     8.3420    41.9330 na         1 HQ0      -0.147500
     10 C10         37.6960     7.0170    41.2670 c3         1 HQ0       0.079600
     11 C11         38.0270     5.8400    42.2160 c3         1 HQ0      -0.055200
     12 C12         39.3910     5.9450    42.8710 c2         1 HQ0      -0.168200
     13 C13         40.4120     5.0980    42.6670 c2         1 HQ0      -0.346000
     14 H2          36.4670    10.7520    43.7520 h4         1 HQ0       0.004100
     15 H3          35.4220     7.2570    43.5230 hc         1 HQ0       0.023033
     16 H4          34.5900     8.8150    43.4030 hc         1 HQ0       0.023033
     17 H5          34.8420     7.8400    41.9480 hc         1 HQ0       0.023033
     18 H6          38.3950     7.0190    40.4260 h1         1 HQ0       0.068700
     19 H7          36.7030     6.8420    40.8340 h1         1 HQ0       0.068700
     20 H8          37.2550     5.7750    42.9910 hc         1 HQ0       0.030700
     21 H9          37.9560     4.9090    41.6400 hc         1 HQ0       0.030700
     22 H10         39.4980     6.7830    43.5650 ha         1 HQ0       0.191000
     23 H11         41.3680     5.2270    43.1760 ha         1 HQ0       0.147500
     24 H12         40.3290     4.2510    41.9850 ha         1 HQ0       0.147500
@<TRIPOS>BOND
     1     1     2 1   
     2     2     3 1   
     3     2     4 1   
     4     4     5 2   
     5     4     9 1   
     6     5     6 1   
     7     6     7 2   
     8     6    14 1   
     9     7     8 1   
    10     7     9 1   
    11     8    15 1   
    12     8    16 1   
    13     8    17 1   
    14     9    10 1   
    15    10    11 1   
    16    10    18 1   
    17    10    19 1   
    18    11    12 1   
    19    11    20 1   
    20    11    21 1   
    21    12    13 2   
    22    12    22 1   
    23    13    23 1   
    24    13    24 1   
@<TRIPOS>SUBSTRUCTURE
     1 HQ0         1 TEMP              0 ****  ****    0 ROOT
