@<TRIPOS>MOLECULE
HQ0
   24    24     1     0     0
SMALL
abcg2


@<TRIPOS>ATOM
      1 O01         40.2710     8.2650    40.5820 o          1 HQ0      -0.698500
      2 C02         40.0260     9.2670    41.2820 c          1 HQ0       0.635500
      3 O03         40.7590    10.2480    41.4800 o          1 HQ0      -0.698500
      4 C04         38.6750     9.3190    41.9780 cc         1 HQ0       0.370000
      5 N05         38.2780    10.3420    42.7030 nd         1 HQ0      -0.676000
      6 C06         37.0250    10.0470    43.1310 cd         1 HQ0       0.212900
      7 C07         36.6340     8.8220    42.6660 cc         1 HQ0      -0.272300
      8 C08         35.3510     8.0920    42.8360 c3         1 HQ0       0.004200
      9 N09         37.6950     8.3640    41.9290 na         1 HQ0      -0.147500
     10 C10         37.7070     7.0600    41.2870 c3         1 HQ0       0.079600
     11 C11         38.0660     5.9200    42.2420 c3         1 HQ0      -0.055200
     12 C12         39.4500     5.9880    42.8030 c2         1 HQ0      -0.168200
     13 C13         40.3490     5.0150    42.7020 c2         1 HQ0      -0.346000
     14 H2          36.4520    10.7240    43.7490 h4         1 HQ0       0.004100
     15 H3          35.4730     7.1330    43.3430 hc         1 HQ0       0.023033
     16 H4          34.6700     8.6950    43.4340 hc         1 HQ0       0.023033
     17 H5          34.8610     7.8920    41.8810 hc         1 HQ0       0.023033
     18 H6          38.4050     7.0930    40.4600 h1         1 HQ0       0.068700
     19 H7          36.7110     6.8790    40.8810 h1         1 HQ0       0.068700
     20 H8          37.3470     5.9060    43.0680 hc         1 HQ0       0.030700
     21 H9          37.9310     4.9800    41.7030 hc         1 HQ0       0.030700
     22 H10         39.7100     6.8900    43.3490 ha         1 HQ0       0.191000
     23 H11         41.3330     5.1030    43.1440 ha         1 HQ0       0.147500
     24 H12         40.1330     4.0940    42.1730 ha         1 HQ0       0.147500
@<TRIPOS>BOND
     1     1     2 1   
     2     2     3 1   
     3     2     4 1   
     4     4     5 2   
     5     4     9 1   
     6     5     6 1   
     7     6     7 2   
     8     6    14 1   
     9     7     8 1   
    10     7     9 1   
    11     8    15 1   
    12     8    16 1   
    13     8    17 1   
    14     9    10 1   
    15    10    11 1   
    16    10    18 1   
    17    10    19 1   
    18    11    12 1   
    19    11    20 1   
    20    11    21 1   
    21    12    13 2   
    22    12    22 1   
    23    13    23 1   
    24    13    24 1   
@<TRIPOS>SUBSTRUCTURE
     1 HQ0         1 TEMP              0 ****  ****    0 ROOT
