@<TRIPOS>MOLECULE
HQ2
   34    36     1     0     0
SMALL
bcc


@<TRIPOS>ATOM
      1 NAA          0.5780    -2.2510     0.1290 nb         1 HQ2      -0.703000
      2 NAB         -2.4230    -0.1720     0.0720 nh         1 HQ2      -0.660000
      3 NAC         -5.1720     0.4060    -0.3170 n7         1 HQ2      -0.806200
      4 CAD          3.9270    -0.9430     0.0780 ca         1 HQ2      -0.190000
      5 CAE          3.6570     0.4340    -0.0140 ca         1 HQ2      -0.089000
      6 CAF          2.3920     0.9740    -0.0740 ca         1 HQ2      -0.150600
      7 CAG          1.2860     0.0620    -0.0230 ca         1 HQ2      -0.047300
      8 CAH          1.5500    -1.3250     0.0770 ca         1 HQ2       0.280600
      9 CAI          2.8810    -1.8250     0.1200 ca         1 HQ2       0.065800
     10 CAJ         -0.0760     0.4260    -0.0350 ca         1 HQ2      -0.119000
     11 CAK         -1.0830    -0.5220     0.0410 ca         1 HQ2       0.012300
     12 CAL         -0.6730    -1.8840     0.1020 ca         1 HQ2       0.360200
     13 CAM          2.2680     2.4890    -0.2010 c          1 HQ2       0.930200
     14 CAN         -2.8530     0.9830    -0.7070 c6         1 HQ2       0.207300
     15 CAO         -4.2070     1.4820    -0.2420 c6         1 HQ2       0.147800
     16 CAP         -4.7680    -0.6660     0.5670 c6         1 HQ2       0.147800
     17 CAQ         -3.4240    -1.2240     0.1300 c6         1 HQ2       0.207300
     18 OAR          3.0700    -3.1460     0.2060 oh         1 HQ2      -0.514100
     19 OAS          1.1400     2.9710    -0.4340 o          1 HQ2      -0.828300
     20 OAT          3.3210     3.1430    -0.0720 o          1 HQ2      -0.828300
     21 HNAC        -6.0880     0.7430    -0.0530 hn         1 HQ2       0.344800
     22 HAD          4.9490    -1.2970     0.1140 ha         1 HQ2       0.125000
     23 HAE          4.4990     1.1120    -0.0420 ha         1 HQ2       0.153000
     24 HAJ         -0.2970     1.4790    -0.0970 ha         1 HQ2       0.196000
     25 HAL         -1.3980    -2.6870     0.1230 h4         1 HQ2      -0.003900
     26 HAN         -2.1380     1.7950    -0.6040 h1         1 HQ2       0.045950
     27 HANA        -2.9060     0.7240    -1.7730 h1         1 HQ2       0.045950
     28 HAO         -4.5180     2.3030    -0.8910 h1         1 HQ2       0.033200
     29 HAOA        -4.1030     1.8890     0.7760 h1         1 HQ2       0.033200
     30 HAP         -4.6850    -0.3410     1.6160 h1         1 HQ2       0.033200
     31 HAPA        -5.5030    -1.4720     0.5320 h1         1 HQ2       0.033200
     32 HAQ         -3.5310    -1.7290    -0.8410 h1         1 HQ2       0.045950
     33 HAQA        -3.1310    -1.9750     0.8630 h1         1 HQ2       0.045950
     34 HOAR         2.1870    -3.5550     0.2260 ho         1 HQ2       0.444000
@<TRIPOS>BOND
     1     1     8 ar  
     2     1    12 ar  
     3     2    11 1   
     4     2    14 1   
     5     2    17 1   
     6     3    15 1   
     7     3    16 1   
     8     3    21 1   
     9     4     5 ar  
    10     4     9 ar  
    11     4    22 1   
    12     5     6 ar  
    13     5    23 1   
    14     6     7 ar  
    15     6    13 1   
    16     7     8 ar  
    17     7    10 ar  
    18     8     9 ar  
    19     9    18 1   
    20    10    11 ar  
    21    10    24 1   
    22    11    12 ar  
    23    12    25 1   
    24    13    19 1   
    25    13    20 1   
    26    14    15 1   
    27    14    26 1   
    28    14    27 1   
    29    15    28 1   
    30    15    29 1   
    31    16    17 1   
    32    16    30 1   
    33    16    31 1   
    34    17    32 1   
    35    17    33 1   
    36    18    34 1   
@<TRIPOS>SUBSTRUCTURE
     1 HQ2         1 TEMP              0 ****  ****    0 ROOT
