@<TRIPOS>MOLECULE
HQ2
   34    36     1     0     0
SMALL
No Charge or Current Charge


@<TRIPOS>ATOM
      1 NAA          0.6700    -2.3680    -0.1050 nb         1 HQ2      -0.703000
      2 NAB         -2.4110    -0.2100    -0.0210 nh         1 HQ2      -0.798400
      3 NAC         -5.3080     0.5040    -0.1800 n7         1 HQ2      -0.861400
      4 CAD          4.0290    -0.8710     0.0280 ca         1 HQ2      -0.172000
      5 CAE          3.7240     0.4960     0.0880 ca         1 HQ2      -0.071000
      6 CAF          2.3830     0.9330     0.0740 ca         1 HQ2      -0.150600
      7 CAG          1.3340    -0.0250     0.0130 ca         1 HQ2       0.018000
      8 CAH          1.6390    -1.4140    -0.0480 ca         1 HQ2       0.150000
      9 CAI          2.9960    -1.8130    -0.0420 ca         1 HQ2       0.131100
     10 CAJ         -0.0260     0.3660     0.0270 ca         1 HQ2      -0.101000
     11 CAK         -1.0390    -0.6080    -0.0350 ca         1 HQ2       0.216000
     12 CAL         -0.6270    -1.9670    -0.0980 ca         1 HQ2       0.294900
     13 CAM          2.1180     2.4150     0.1230 c          1 HQ2       0.719600
     14 CAN         -2.9110     0.8140    -1.0000 c6         1 HQ2       0.207300
     15 CAO         -4.2480     1.4890    -0.5390 c6         1 HQ2       0.147800
     16 CAP         -4.8060    -0.4680     0.8330 c6         1 HQ2       0.147800
     17 CAQ         -3.4790    -1.1800     0.3980 c6         1 HQ2       0.207300
     18 OAR          3.2960    -3.1440    -0.0990 oh         1 HQ2      -0.553100
     19 OAS          1.5460     2.9340    -0.8250 o          1 HQ2      -0.723000
     20 OAT          2.5490     3.0420     1.0790 o          1 HQ2      -0.723000
     21 HNAC        -6.1160     1.0070     0.2090 hn         1 HQ2       0.400000
     22 HAD          5.0660    -1.1980     0.0350 ha         1 HQ2       0.107000
     23 HAE          4.5310     1.2250     0.1390 ha         1 HQ2       0.135000
     24 HAJ         -0.3080     1.4100     0.1050 ha         1 HQ2       0.178000
     25 HAL         -1.3600    -2.7720    -0.1510 h4         1 HQ2      -0.003900
     26 HAN         -2.1650     1.6060    -1.1580 h1         1 HQ2       0.045950
     27 HANA        -3.0800     0.3350    -1.9760 h1         1 HQ2       0.045950
     28 HAO         -4.6170     2.1510    -1.3370 h1         1 HQ2       0.033200
     29 HAOA        -4.0370     2.1210     0.3370 h1         1 HQ2       0.033200
     30 HAP         -4.6230     0.0650     1.7780 h1         1 HQ2       0.033200
     31 HAPA        -5.5780    -1.2260     1.0290 h1         1 HQ2       0.033200
     32 HAQ         -3.7030    -1.8650    -0.4330 h1         1 HQ2       0.045950
     33 HAQA        -3.1280    -1.7930     1.2410 h1         1 HQ2       0.045950
     34 HOAR         2.4180    -3.5910    -0.1360 ho         1 HQ2       0.483000
@<TRIPOS>BOND
     1     1     8 ar  
     2     1    12 ar  
     3     2    11 1   
     4     2    14 1   
     5     2    17 1   
     6     3    15 1   
     7     3    16 1   
     8     3    21 1   
     9     4     5 ar  
    10     4     9 ar  
    11     4    22 1   
    12     5     6 ar  
    13     5    23 1   
    14     6     7 ar  
    15     6    13 1   
    16     7     8 ar  
    17     7    10 ar  
    18     8     9 ar  
    19     9    18 1   
    20    10    11 ar  
    21    10    24 1   
    22    11    12 ar  
    23    12    25 1   
    24    13    19 1   
    25    13    20 1   
    26    14    15 1   
    27    14    26 1   
    28    14    27 1   
    29    15    28 1   
    30    15    29 1   
    31    16    17 1   
    32    16    30 1   
    33    16    31 1   
    34    17    32 1   
    35    17    33 1   
    36    18    34 1   
@<TRIPOS>SUBSTRUCTURE
     1 HQ2         1 TEMP              0 ****  ****    0 ROOT
