@<TRIPOS>MOLECULE
HQ3
   27    28     1     0     0
SMALL
No Charge or Current Charge


@<TRIPOS>ATOM
      1 O01         28.2090    17.1790    -8.4090 o          1 HQ3      -0.699000
      2 C02         29.0480    17.7860    -9.0730 c          1 HQ3       0.633500
      3 O03         28.8020    18.9080    -9.5040 o          1 HQ3      -0.699000
      4 C04         30.4010    17.1220    -9.3670 cc         1 HQ3       0.366000
      5 N05         30.7390    15.8910    -8.9430 nd         1 HQ3      -0.673000
      6 C06         32.0110    15.6400    -9.3920 cd         1 HQ3       0.212900
      7 C07         32.4900    16.7050   -10.1020 cc         1 HQ3      -0.260300
      8 C08         33.8340    16.8620   -10.7650 c3         1 HQ3       0.000200
      9 N09         31.4770    17.6490   -10.0920 na         1 HQ3      -0.149500
     10 C10         31.5480    18.9830   -10.7290 c3         1 HQ3       0.116900
     11 C11         31.9160    20.1320    -9.7870 ca         1 HQ3      -0.078300
     12 C12         32.7160    19.9260    -8.6410 ca         1 HQ3      -0.090000
     13 C13         33.0460    21.0040    -7.8010 ca         1 HQ3      -0.125000
     14 C14         32.5840    22.2960    -8.0980 ca         1 HQ3      -0.125000
     15 C15         31.7930    22.5110    -9.2370 ca         1 HQ3      -0.125000
     16 C16         31.4630    21.4350   -10.0790 ca         1 HQ3      -0.090000
     17 H2          32.5140    14.7050    -9.1780 h4         1 HQ3       0.006100
     18 H3          34.3380    17.7750   -10.4260 hc         1 HQ3       0.026700
     19 H4          34.4880    16.0130   -10.5330 hc         1 HQ3       0.026700
     20 H5          33.7290    16.9160   -11.8560 hc         1 HQ3       0.026700
     21 H6          32.2920    18.9480   -11.5330 h1         1 HQ3       0.076700
     22 H7          30.5880    19.1950   -11.2150 h1         1 HQ3       0.076700
     23 H8          33.0900    18.9350    -8.3960 ha         1 HQ3       0.126500
     24 H9          33.6620    20.8370    -6.9200 ha         1 HQ3       0.099500
     25 H10         32.8400    23.1300    -7.4470 ha         1 HQ3       0.094000
     26 H11         31.4360    23.5120    -9.4700 ha         1 HQ3       0.099500
     27 H12         30.8500    21.6140   -10.9600 ha         1 HQ3       0.126500
@<TRIPOS>BOND
     1     1     2 1   
     2     2     3 1   
     3     2     4 1   
     4     4     5 2   
     5     4     9 1   
     6     5     6 1   
     7     6     7 2   
     8     6    17 1   
     9     7     8 1   
    10     7     9 1   
    11     8    18 1   
    12     8    19 1   
    13     8    20 1   
    14     9    10 1   
    15    10    11 1   
    16    10    21 1   
    17    10    22 1   
    18    11    12 ar  
    19    11    16 ar  
    20    12    13 ar  
    21    12    23 1   
    22    13    14 ar  
    23    13    24 1   
    24    14    15 ar  
    25    14    25 1   
    26    15    16 ar  
    27    15    26 1   
    28    16    27 1   
@<TRIPOS>SUBSTRUCTURE
     1 HQ3         1 TEMP              0 ****  ****    0 ROOT
