@<TRIPOS>MOLECULE
HQ3
   27    28     1     0     0
SMALL
bcc


@<TRIPOS>ATOM
      1 O01         28.5410    16.2420    -8.1690 o          1 HQ3      -0.804300
      2 C02         29.1390    17.1790    -8.7190 c          1 HQ3       0.844100
      3 O03         28.7320    18.3480    -8.8820 o          1 HQ3      -0.804300
      4 C04         30.5290    16.8480    -9.2300 cc         1 HQ3       0.366000
      5 N05         31.1470    15.7170    -8.9700 nd         1 HQ3      -0.673000
      6 C06         32.3660    15.8000    -9.5620 cd         1 HQ3       0.278200
      7 C07         32.5080    16.9990   -10.2050 cc         1 HQ3      -0.274900
      8 C08         33.6370    17.5510   -10.9950 c3         1 HQ3       0.000200
      9 N09         31.3280    17.6600    -9.9880 na         1 HQ3      -0.170900
     10 C10         31.0590    18.9840   -10.5130 c3         1 HQ3       0.087600
     11 C11         31.7250    20.0760    -9.7140 ca         1 HQ3      -0.078300
     12 C12         31.6390    20.1030    -8.3240 ca         1 HQ3      -0.108000
     13 C13         32.2340    21.1260    -7.6020 ca         1 HQ3      -0.143000
     14 C14         32.9170    22.1440    -8.2580 ca         1 HQ3      -0.143000
     15 C15         33.0040    22.1270    -9.6420 ca         1 HQ3      -0.143000
     16 C16         32.4140    21.0960   -10.3630 ca         1 HQ3      -0.108000
     17 H2          33.0900    15.0000    -9.5070 h4         1 HQ3       0.006100
     18 H3          34.0360    18.4700   -10.5620 hc         1 HQ3       0.026700
     19 H4          34.4460    16.8230   -11.0330 hc         1 HQ3       0.026700
     20 H5          33.3500    17.7770   -12.0250 hc         1 HQ3       0.026700
     21 H6          31.4030    19.0230   -11.5480 h1         1 HQ3       0.076700
     22 H7          29.9830    19.1290   -10.5190 h1         1 HQ3       0.076700
     23 H8          31.1020    19.3210    -7.8020 ha         1 HQ3       0.144500
     24 H9          32.1610    21.1320    -6.5220 ha         1 HQ3       0.117500
     25 H10         33.3790    22.9420    -7.6920 ha         1 HQ3       0.112000
     26 H11         33.5370    22.9110   -10.1640 ha         1 HQ3       0.117500
     27 H12         32.4960    21.0810   -11.4440 ha         1 HQ3       0.144500
@<TRIPOS>BOND
     1     1     2 1   
     2     2     3 1   
     3     2     4 1   
     4     4     5 2   
     5     4     9 1   
     6     5     6 1   
     7     6     7 2   
     8     6    17 1   
     9     7     8 1   
    10     7     9 1   
    11     8    18 1   
    12     8    19 1   
    13     8    20 1   
    14     9    10 1   
    15    10    11 1   
    16    10    21 1   
    17    10    22 1   
    18    11    12 ar  
    19    11    16 ar  
    20    12    13 ar  
    21    12    23 1   
    22    13    14 ar  
    23    13    24 1   
    24    14    15 ar  
    25    14    25 1   
    26    15    16 ar  
    27    15    26 1   
    28    16    27 1   
@<TRIPOS>SUBSTRUCTURE
     1 HQ3         1 TEMP              0 ****  ****    0 ROOT
