@<TRIPOS>MOLECULE
HQ5
   54    55     1     0     0
SMALL
No Charge or Current Charge


@<TRIPOS>ATOM
      1 C2          -8.9930    -3.3010   -28.0400 c          1 HQ5       0.720400
      2 C4          -8.8980    -4.0170   -25.8480 cc         1 HQ5       0.782500
      3 C5          -7.5720    -4.4650   -25.9700 cc         1 HQ5      -0.481600
      4 C6          -6.9490    -4.3140   -27.1860 cd         1 HQ5       0.030600
      5 N           -0.0940    -0.5260   -28.4240 n8         1 HQ5      -1.035200
      6 CA          -1.5860    -0.4730   -28.1780 c3         1 HQ5       0.108500
      7 C           -2.2660    -1.7890   -27.6490 c          1 HQ5       0.587100
      8 O           -3.2040    -1.7590   -26.8680 o          1 HQ5      -0.543100
      9 CB          -2.3360     0.0320   -29.4430 c3         1 HQ5      -0.067400
     10 CG          -1.9730     1.4630   -29.9350 c3         1 HQ5      -0.054700
     11 CD1         -2.6770     1.7760   -31.2750 c3         1 HQ5      -0.089600
     12 CD2         -2.2890     2.5570   -28.8850 c3         1 HQ5      -0.089600
     13 C1          -7.0370    -3.5310   -29.5600 c5         1 HQ5       0.322700
     14 C7          -6.0440    -2.3260   -29.4560 c5         1 HQ5       0.093300
     15 C3          -5.2050    -2.6080   -30.7310 c5         1 HQ5       0.119300
     16 C8          -5.0740    -4.1760   -30.6880 c5         1 HQ5       0.162300
     17 C9          -3.7490    -4.6800   -30.0490 c3         1 HQ5       0.199600
     18 N1          -7.6610    -3.7240   -28.2270 n          1 HQ5      -0.319000
     19 N3          -9.5870    -3.4760   -26.7900 nd         1 HQ5      -0.768100
     20 N3S         -1.7160    -2.9530   -28.0920 ns         1 HQ5      -0.633300
     21 N4          -9.5180    -4.1590   -24.6970 nv         1 HQ5      -1.037200
     22 O1S         -1.4300    -5.4080   -28.6080 o          1 HQ5      -0.544000
     23 O2          -9.6510    -2.7850   -28.9280 o          1 HQ5      -0.546000
     24 O6          -6.6610    -1.0210   -29.5270 oh         1 HQ5      -0.702000
     25 O2S         -2.5760    -4.6870   -26.4380 o          1 HQ5      -0.544000
     26 O3          -5.9210    -2.1340   -31.8780 oh         1 HQ5      -0.717000
     27 O4          -6.2120    -4.6600   -29.9150 os         1 HQ5      -0.453000
     28 O5          -3.7170    -4.3020   -28.6590 os         1 HQ5      -0.596700
     29 S           -2.2950    -4.4890   -27.8630 s6         1 HQ5       1.470500
     30 H1          -7.0700    -4.9100   -25.1200 ha         1 HQ5       0.205000
     31 H2          -5.9290    -4.6150   -27.4220 h4         1 HQ5       0.217000
     32 H4           0.1250    -1.1340   -29.2220 hn         1 HQ5       0.421500
     33 H6          -1.7590     0.2510   -27.3700 h1         1 HQ5       0.100700
     34 H7          -3.4150     0.0010   -29.2440 hc         1 HQ5       0.045200
     35 H8          -2.1590    -0.6820   -30.2580 hc         1 HQ5       0.045200
     36 H9          -0.8940     1.4950   -30.1280 hc         1 HQ5       0.058700
     37 H10         -2.3810     2.7650   -31.6480 hc         1 HQ5       0.036700
     38 H11         -2.4090     1.0350   -32.0380 hc         1 HQ5       0.036700
     39 H12         -3.7680     1.7670   -31.1560 hc         1 HQ5       0.036700
     40 H13         -1.6860     2.4240   -27.9800 hc         1 HQ5       0.036700
     41 H14         -2.0640     3.5530   -29.2860 hc         1 HQ5       0.036700
     42 H15         -3.3490     2.5350   -28.6030 hc         1 HQ5       0.036700
     43 H16         -7.8110    -3.3610   -30.3210 h2         1 HQ5       0.129700
     44 H17         -5.4160    -2.4110   -28.5580 h1         1 HQ5       0.078700
     45 H18         -4.2210    -2.1210   -30.6720 h1         1 HQ5       0.053700
     46 H19         -5.1340    -4.5900   -31.7030 h1         1 HQ5       0.096700
     47 H20         -3.6920    -5.7710   -30.1600 h1         1 HQ5       0.067200
     48 H21         -2.9110    -4.2370   -30.6050 h1         1 HQ5       0.067200
     49 H22         -0.9590    -2.9440   -28.7500 hn         1 HQ5       0.341500
     50 H23        -10.5210    -4.0640   -24.7780 hn         1 HQ5       0.502500
     51 H24         -9.1960    -4.9240   -24.1180 hn         1 HQ5       0.502500
     52 H25         -7.0310    -0.8160   -28.6350 ho         1 HQ5       0.520000
     53 H26         -6.4190    -1.3530   -31.5230 ho         1 HQ5       0.532000
     54 H3           0.3810    -0.9690   -27.6260 hn         1 HQ5       0.421500
@<TRIPOS>BOND
     1     1    18 1   
     2     1    19 1   
     3     1    23 2   
     4     2     3 1   
     5     2    19 2   
     6     2    21 1   
     7     3     4 2   
     8     3    30 1   
     9     4    18 1   
    10     4    31 1   
    11     5     6 1   
    12     5    32 1   
    13     5    54 1   
    14     6     7 1   
    15     6     9 1   
    16     6    33 1   
    17     7     8 2   
    18     7    20 1   
    19     9    10 1   
    20     9    34 1   
    21     9    35 1   
    22    10    11 1   
    23    10    12 1   
    24    10    36 1   
    25    11    37 1   
    26    11    38 1   
    27    11    39 1   
    28    12    40 1   
    29    12    41 1   
    30    12    42 1   
    31    13    14 1   
    32    13    18 1   
    33    13    27 1   
    34    13    43 1   
    35    14    15 1   
    36    14    24 1   
    37    14    44 1   
    38    15    16 1   
    39    15    26 1   
    40    15    45 1   
    41    16    17 1   
    42    16    27 1   
    43    16    46 1   
    44    17    28 1   
    45    17    47 1   
    46    17    48 1   
    47    20    29 1   
    48    20    49 1   
    49    21    50 1   
    50    21    51 1   
    51    22    29 2   
    52    24    52 1   
    53    25    29 2   
    54    26    53 1   
    55    28    29 1   
@<TRIPOS>SUBSTRUCTURE
     1 HQ5         1 TEMP              0 ****  ****    0 ROOT
