@<TRIPOS>MOLECULE
HQ5
   54    55     1     0     0
SMALL
abcg2


@<TRIPOS>ATOM
      1 C2          -9.3660    -4.1220   -28.1620 c          1 HQ5       0.720400
      2 C4          -9.2190    -5.2940   -26.1470 cc         1 HQ5       0.782500
      3 C5          -7.7920    -5.2040   -26.1280 cc         1 HQ5      -0.481600
      4 C6          -7.2110    -4.5560   -27.1580 cd         1 HQ5       0.030600
      5 N           -0.0100    -0.6710   -28.6730 n8         1 HQ5      -1.035200
      6 CA          -1.3850    -0.2740   -28.4430 c3         1 HQ5       0.108500
      7 C           -2.3160    -1.3030   -27.7880 c          1 HQ5       0.587100
      8 O           -3.3800    -0.9970   -27.2910 o          1 HQ5      -0.543100
      9 CB          -2.0550     0.1660   -29.7570 c3         1 HQ5      -0.067400
     10 CG          -1.3620     1.3230   -30.4850 c3         1 HQ5      -0.054700
     11 CD1         -2.1010     1.6110   -31.7940 c3         1 HQ5      -0.089600
     12 CD2         -1.2770     2.5800   -29.6200 c3         1 HQ5      -0.089600
     13 C1          -7.2830    -3.3450   -29.2640 c5         1 HQ5       0.322700
     14 C7          -6.4740    -2.1050   -28.8760 c5         1 HQ5       0.093300
     15 C3          -5.4220    -2.0490   -29.9920 c5         1 HQ5       0.119300
     16 C8          -5.1810    -3.5280   -30.3030 c5         1 HQ5       0.162300
     17 C9          -3.9450    -4.1200   -29.6700 c3         1 HQ5       0.199600
     18 N1          -7.9530    -4.0100   -28.1620 n          1 HQ5      -0.319000
     19 N3          -9.9500    -4.7720   -27.1260 nd         1 HQ5      -0.768100
     20 N3S         -1.8760    -2.6150   -27.8450 ns         1 HQ5      -0.633300
     21 N4          -9.8570    -5.9220   -25.1500 nv         1 HQ5      -1.037200
     22 O1S         -1.9240    -5.0610   -27.7120 o          1 HQ5      -0.544000
     23 O2         -10.0130    -3.6300   -29.0890 o          1 HQ5      -0.546000
     24 O6          -7.3250    -0.9740   -28.8470 oh         1 HQ5      -0.702000
     25 O2S         -3.1930    -3.7680   -26.0090 o          1 HQ5      -0.544000
     26 O3          -5.9570    -1.4180   -31.1470 oh         1 HQ5      -0.717000
     27 O4          -6.3480    -4.2430   -29.8510 os         1 HQ5      -0.453000
     28 O5          -4.0350    -3.8890   -28.2270 os         1 HQ5      -0.596700
     29 S           -2.7340    -3.9380   -27.3490 s6         1 HQ5       1.470500
     30 H1          -7.2060    -5.6400   -25.3330 ha         1 HQ5       0.205000
     31 H2          -6.1400    -4.4510   -27.2450 h4         1 HQ5       0.217000
     32 H4           0.0990    -1.3050   -29.4560 hn         1 HQ5       0.421500
     33 H6          -1.3900     0.5640   -27.7420 h1         1 HQ5       0.100700
     34 H7          -3.0850     0.4520   -29.5340 hc         1 HQ5       0.045200
     35 H8          -2.1000    -0.7040   -30.4220 hc         1 HQ5       0.045200
     36 H9          -0.3440     1.0090   -30.7320 hc         1 HQ5       0.058700
     37 H10         -1.6010     2.4010   -32.3580 hc         1 HQ5       0.036700
     38 H11         -2.1500     0.7210   -32.4250 hc         1 HQ5       0.036700
     39 H12         -3.1260     1.9380   -31.5930 hc         1 HQ5       0.036700
     40 H13         -0.6730     2.4200   -28.7260 hc         1 HQ5       0.036700
     41 H14         -0.8260     3.4010   -30.1820 hc         1 HQ5       0.036700
     42 H15         -2.2750     2.8970   -29.3030 hc         1 HQ5       0.036700
     43 H16         -8.0620    -3.0700   -29.9710 h2         1 HQ5       0.129700
     44 H17         -5.9810    -2.2480   -27.9150 h1         1 HQ5       0.078700
     45 H18         -4.5120    -1.5460   -29.6660 h1         1 HQ5       0.053700
     46 H19         -5.0820    -3.6590   -31.3840 h1         1 HQ5       0.096700
     47 H20         -3.8920    -5.1940   -29.8340 h1         1 HQ5       0.067200
     48 H21         -3.0540    -3.6320   -30.0640 h1         1 HQ5       0.067200
     49 H22         -0.9910    -2.8200   -28.2920 hn         1 HQ5       0.341500
     50 H23        -10.8610    -5.9970   -25.1670 hn         1 HQ5       0.502500
     51 H24         -9.3490    -6.3490   -24.3940 hn         1 HQ5       0.502500
     52 H25         -6.9530    -0.3180   -28.2440 ho         1 HQ5       0.520000
     53 H26         -6.5230    -0.6970   -30.8310 ho         1 HQ5       0.532000
     54 H3           0.4420    -1.0540   -27.8530 hn         1 HQ5       0.421500
@<TRIPOS>BOND
     1     1    18 1   
     2     1    19 1   
     3     1    23 2   
     4     2     3 1   
     5     2    19 2   
     6     2    21 1   
     7     3     4 2   
     8     3    30 1   
     9     4    18 1   
    10     4    31 1   
    11     5     6 1   
    12     5    32 1   
    13     5    54 1   
    14     6     7 1   
    15     6     9 1   
    16     6    33 1   
    17     7     8 2   
    18     7    20 1   
    19     9    10 1   
    20     9    34 1   
    21     9    35 1   
    22    10    11 1   
    23    10    12 1   
    24    10    36 1   
    25    11    37 1   
    26    11    38 1   
    27    11    39 1   
    28    12    40 1   
    29    12    41 1   
    30    12    42 1   
    31    13    14 1   
    32    13    18 1   
    33    13    27 1   
    34    13    43 1   
    35    14    15 1   
    36    14    24 1   
    37    14    44 1   
    38    15    16 1   
    39    15    26 1   
    40    15    45 1   
    41    16    17 1   
    42    16    27 1   
    43    16    46 1   
    44    17    28 1   
    45    17    47 1   
    46    17    48 1   
    47    20    29 1   
    48    20    49 1   
    49    21    50 1   
    50    21    51 1   
    51    22    29 2   
    52    24    52 1   
    53    25    29 2   
    54    26    53 1   
    55    28    29 1   
@<TRIPOS>SUBSTRUCTURE
     1 HQ5         1 TEMP              0 ****  ****    0 ROOT
