@<TRIPOS>MOLECULE
HQ6
   34    34     1     0     0
SMALL
bcc


@<TRIPOS>ATOM
      1 O9           3.2130     0.4220     1.5610 o          1 HQ6      -0.612100
      2 C9           3.2960    -0.1320     0.4710 c          1 HQ6       0.683100
      3 C10          4.6300    -0.5390    -0.1070 c3         1 HQ6      -0.177100
      4 N2           2.2360    -0.4220    -0.2970 ns         1 HQ6      -0.544900
      5 C5           0.8810    -0.0440     0.0200 c3         1 HQ6       0.133700
      6 C6           0.4530     1.1930    -0.8000 c3         1 HQ6       0.124100
      7 O6           1.5900     1.9830    -1.0580 oh         1 HQ6      -0.581800
      8 C4          -0.0360    -1.2380    -0.2850 c3         1 HQ6       0.146100
      9 O4           0.5580    -2.3850     0.2740 oh         1 HQ6      -0.584800
     10 C3          -1.4800    -1.1380     0.2190 c3         1 HQ6       0.110100
     11 O3          -2.1210    -2.2770    -0.3360 oh         1 HQ6      -0.613800
     12 C2          -2.2130     0.1690    -0.1120 c3         1 HQ6       0.157500
     13 C8          -3.6780     0.0620     0.2880 c3         1 HQ6       0.120400
     14 O8          -4.3090     1.2930     0.0130 oh         1 HQ6      -0.604800
     15 N1          -1.5670     1.2280     0.6460 n7         1 HQ6      -0.820200
     16 C7          -0.6080     2.0270    -0.0830 c3         1 HQ6       0.133800
     17 H101         5.2340    -1.0130     0.6640 hc         1 HQ6       0.056367
     18 H102         4.5480    -1.2180    -0.9540 hc         1 HQ6       0.056367
     19 H103         5.1650     0.3520    -0.4390 hc         1 HQ6       0.056367
     20 H2           2.4070    -0.8370    -1.1990 hn         1 HQ6       0.308500
     21 H5           0.8500     0.1880     1.0860 h1         1 HQ6       0.115700
     22 H6           0.0400     0.8290    -1.7540 h1         1 HQ6       0.021700
     23 H4          -0.0850    -1.3310    -1.3850 h1         1 HQ6       0.030700
     24 HA           1.3120     2.7300    -1.5980 ho         1 HQ6       0.403000
     25 H71C        -0.0920     2.6680     0.6370 h1         1 HQ6       0.043200
     26 H72C        -1.0820     2.6910    -0.8250 h1         1 HQ6       0.043200
     27 HB          -0.0430    -3.1210     0.1090 ho         1 HQ6       0.414000
     28 H3          -1.4520    -1.2060     1.3150 h1         1 HQ6       0.061700
     29 HC          -2.7960    -2.5880     0.2730 ho         1 HQ6       0.408000
     30 HD          -2.1820     0.3550    -1.1980 h1         1 HQ6       0.056700
     31 H81C        -4.1480    -0.7550    -0.2680 h1         1 HQ6       0.029200
     32 H82C        -3.7400    -0.1880     1.3570 h1         1 HQ6       0.029200
     33 H1          -2.2600     1.8460     1.0440 hn         1 HQ6       0.383800
     34 H8          -5.1980     1.2610     0.3780 ho         1 HQ6       0.412000
@<TRIPOS>BOND
     1     1     2 2   
     2     2     3 1   
     3     2     4 1   
     4     3    17 1   
     5     3    18 1   
     6     3    19 1   
     7     4     5 1   
     8     4    20 1   
     9     5     6 1   
    10     5     8 1   
    11     5    21 1   
    12     6     7 1   
    13     6    16 1   
    14     6    22 1   
    15     7    24 1   
    16     8     9 1   
    17     8    10 1   
    18     8    23 1   
    19     9    27 1   
    20    10    11 1   
    21    10    12 1   
    22    10    28 1   
    23    11    29 1   
    24    12    13 1   
    25    12    15 1   
    26    12    30 1   
    27    13    14 1   
    28    13    31 1   
    29    13    32 1   
    30    14    34 1   
    31    15    16 1   
    32    15    33 1   
    33    16    25 1   
    34    16    26 1   
@<TRIPOS>SUBSTRUCTURE
     1 HQ6         1 TEMP              0 ****  ****    0 ROOT
