@<TRIPOS>MOLECULE
HQ6
   34    34     1     0     0
SMALL
No Charge or Current Charge


@<TRIPOS>ATOM
      1 O9           3.2200     0.2890     1.6720 o          1 HQ6      -0.612100
      2 C9           3.3790    -0.1850     0.5550 c          1 HQ6       0.616100
      3 C10          4.7470    -0.6160     0.0390 c3         1 HQ6      -0.177100
      4 N2           2.3460    -0.3790    -0.3290 ns         1 HQ6      -0.477900
      5 C5           0.9300    -0.0300    -0.0690 c3         1 HQ6       0.133700
      6 C6           0.5030     1.2870    -0.8100 c3         1 HQ6       0.147300
      7 O6           1.6290     2.1660    -1.0230 oh         1 HQ6      -0.644000
      8 C4          -0.0180    -1.2270    -0.4270 c3         1 HQ6       0.169300
      9 O4           0.5820    -2.4890    -0.0720 oh         1 HQ6      -0.647000
     10 C3          -1.4380    -1.1840     0.2160 c3         1 HQ6       0.133300
     11 O3          -2.1640    -2.3560    -0.2280 oh         1 HQ6      -0.676000
     12 C2          -2.2410     0.1240    -0.0890 c3         1 HQ6       0.157500
     13 C8          -3.7350     0.0380     0.3550 c3         1 HQ6       0.143600
     14 O8          -4.3640     1.3350     0.3040 oh         1 HQ6      -0.667000
     15 N1          -1.6260     1.2680     0.6270 n7         1 HQ6      -0.875400
     16 C7          -0.6360     2.0890    -0.1070 c3         1 HQ6       0.133800
     17 H101         5.5460    -0.4530     0.7700 hc         1 HQ6       0.056367
     18 H102         4.6950    -1.6650    -0.2770 hc         1 HQ6       0.056367
     19 H103         4.9510    -0.0990    -0.9050 hc         1 HQ6       0.056367
     20 H2           2.5810    -0.7940    -1.2210 hn         1 HQ6       0.308500
     21 H5           0.8230     0.1530     1.0080 h1         1 HQ6       0.115700
     22 H6           0.1230     0.9830    -1.7950 h1         1 HQ6       0.021700
     23 H4          -0.1550    -1.2120    -1.5170 h1         1 HQ6       0.030700
     24 HA           1.3440     2.8590    -1.6590 ho         1 HQ6       0.442000
     25 H71C        -0.1820     2.8010     0.5960 h1         1 HQ6       0.043200
     26 H72C        -1.1480     2.6860    -0.8750 h1         1 HQ6       0.043200
     27 HB          -0.1620    -3.1320    -0.1210 ho         1 HQ6       0.453000
     28 H3          -1.3050    -1.2340     1.3060 h1         1 HQ6       0.061700
     29 HC          -2.8810    -2.5270     0.4220 ho         1 HQ6       0.447000
     30 HD          -2.2380     0.3000    -1.1750 h1         1 HQ6       0.056700
     31 H81C        -4.2680    -0.6670    -0.2980 h1         1 HQ6       0.029200
     32 H82C        -3.7820    -0.3550     1.3790 h1         1 HQ6       0.029200
     33 H1          -2.4220     1.8850     0.8560 hn         1 HQ6       0.439000
     34 H8          -5.3090     1.2070     0.5480 ho         1 HQ6       0.451000
@<TRIPOS>BOND
     1     1     2 2   
     2     2     3 1   
     3     2     4 1   
     4     3    17 1   
     5     3    18 1   
     6     3    19 1   
     7     4     5 1   
     8     4    20 1   
     9     5     6 1   
    10     5     8 1   
    11     5    21 1   
    12     6     7 1   
    13     6    16 1   
    14     6    22 1   
    15     7    24 1   
    16     8     9 1   
    17     8    10 1   
    18     8    23 1   
    19     9    27 1   
    20    10    11 1   
    21    10    12 1   
    22    10    28 1   
    23    11    29 1   
    24    12    13 1   
    25    12    15 1   
    26    12    30 1   
    27    13    14 1   
    28    13    31 1   
    29    13    32 1   
    30    14    34 1   
    31    15    16 1   
    32    15    33 1   
    33    16    25 1   
    34    16    26 1   
@<TRIPOS>SUBSTRUCTURE
     1 HQ6         1 TEMP              0 ****  ****    0 ROOT
