@<TRIPOS>MOLECULE
HQ7
   64    67     1     0     0
SMALL
No Charge or Current Charge


@<TRIPOS>ATOM
      1 C4          -0.2790    -4.4380     0.0710 ca         1 HQ7      -0.194000
      2 C5          -0.1080    -3.1000     0.4530 ca         1 HQ7      -0.040000
      3 C6           0.9460    -2.3690    -0.1280 ca         1 HQ7      -0.206300
      4 C7           1.1840    -0.8870     0.2440 c6         1 HQ7       0.082000
      5 C10          2.9280    -0.8310    -1.5620 c6         1 HQ7       0.102000
      6 C17          5.1750     2.2670     0.9240 c3         1 HQ7      -0.046400
      7 C22         -0.0020     0.0070    -0.2480 c          1 HQ7       0.590100
      8 C26         -2.8300     1.3150    -0.6950 ca         1 HQ7      -0.140000
      9 C28         -4.7150     2.6780    -1.8410 c5         1 HQ7      -0.037100
     10 C1           1.2500    -6.9930    -2.1520 c3         1 HQ7       0.160900
     11 C3           0.5980    -5.0120    -0.8590 ca         1 HQ7       0.595300
     12 N9           2.5300    -0.3870    -0.1990 n          1 HQ7      -0.415800
     13 C11          3.0030    -2.3610    -1.6470 c6         1 HQ7      -0.160700
     14 C12          1.7890    -3.0380    -1.0410 ca         1 HQ7       0.421300
     15 N13          1.6240    -4.3270    -1.4020 nb         1 HQ7      -0.769000
     16 C14          3.1070     0.7340     0.4460 c          1 HQ7       0.613100
     17 O15          2.5190     1.2780     1.3720 o          1 HQ7      -0.576100
     18 C16          4.5050     1.2170     0.0040 c3         1 HQ7      -0.150400
     19 C18          6.5790     2.6940     0.4300 c3         1 HQ7      -0.209400
     20 C19          7.1840     3.7350     1.3890 c          1 HQ7       0.718000
     21 O20          6.9440     4.9150     1.1840 o          1 HQ7      -0.738500
     22 O21          7.8320     3.3320     2.3430 o          1 HQ7      -0.738500
     23 O23          0.0790     0.6830    -1.2690 o          1 HQ7      -0.552100
     24 N24         -1.1410    -0.0470     0.5470 ns         1 HQ7      -0.149000
     25 C25         -2.4200     0.5600     0.4280 ca         1 HQ7       0.017000
     26 C27         -4.1180     1.8720    -0.7200 ca         1 HQ7      -0.036300
     27 C29         -5.8860     3.3860    -1.0690 c5         1 HQ7      -0.074400
     28 C30         -6.3380     2.3720     0.0600 c5         1 HQ7       0.014300
     29 C31         -6.9470     3.1140     1.2790 c3         1 HQ7      -0.078600
     30 C32         -7.3680     1.3360    -0.4580 c3         1 HQ7      -0.078600
     31 C33         -5.0010     1.7010     0.3310 ca         1 HQ7      -0.157300
     32 C34         -4.6160     0.9320     1.4450 ca         1 HQ7       0.212000
     33 F35         -5.4700     0.7070     2.4680 f          1 HQ7      -0.185000
     34 C36         -3.3290     0.3700     1.4900 ca         1 HQ7      -0.226000
     35 H1          -1.0820    -5.0360     0.4900 ha         1 HQ7       0.138000
     36 H2          -0.7790    -2.6580     1.1870 ha         1 HQ7       0.127000
     37 H3           1.1490    -0.8270     1.3420 h1         1 HQ7       0.123700
     38 H4           2.1860    -0.4680    -2.2870 h1         1 HQ7       0.059200
     39 H5           3.8970    -0.4160    -1.8670 h1         1 HQ7       0.059200
     40 H6           4.5310     3.1540     0.9900 hc         1 HQ7       0.058700
     41 H7           5.2580     1.8570     1.9380 hc         1 HQ7       0.058700
     42 H8          -2.1790     1.4730    -1.5490 ha         1 HQ7       0.158000
     43 H9          -4.0120     3.3960    -2.2790 hc         1 HQ7       0.058700
     44 H10         -5.0860     2.0350    -2.6470 hc         1 HQ7       0.058700
     45 H11          1.2210    -6.4900    -3.1280 h1         1 HQ7       0.046033
     46 H12          2.2900    -7.0070    -1.7980 h1         1 HQ7       0.046033
     47 H13          0.9270    -8.0310    -2.2960 h1         1 HQ7       0.046033
     48 H14          3.1280    -2.6630    -2.6950 hc         1 HQ7       0.073700
     49 H15          3.8970    -2.7070    -1.1120 hc         1 HQ7       0.073700
     50 H16          4.4170     1.5930    -1.0220 hc         1 HQ7       0.045700
     51 H17          5.1430     0.3360    -0.1350 hc         1 HQ7       0.045700
     52 H18          7.1850     1.7790     0.4230 hc         1 HQ7       0.012700
     53 H19          6.4270     3.1300    -0.5650 hc         1 HQ7       0.012700
     54 H21         -1.0460    -0.6270     1.3700 hn         1 HQ7       0.159000
     55 H22         -5.5150     4.3150    -0.6200 hc         1 HQ7       0.045200
     56 H23         -6.7080     3.6730    -1.7340 hc         1 HQ7       0.045200
     57 H24         -7.8010     3.7310     0.9750 hc         1 HQ7       0.035867
     58 H25         -7.3060     2.4190     2.0460 hc         1 HQ7       0.035867
     59 H26         -6.2090     3.7770     1.7470 hc         1 HQ7       0.035867
     60 H27         -6.9870     0.7970    -1.3340 hc         1 HQ7       0.035867
     61 H28         -7.6020     0.5900     0.3110 hc         1 HQ7       0.035867
     62 H29         -8.3070     1.8210    -0.7500 hc         1 HQ7       0.035867
     63 H30         -3.0420    -0.2200     2.3560 ha         1 HQ7       0.127000
     64 O2           0.3930    -6.3270    -1.2040 os         1 HQ7      -0.462300
@<TRIPOS>BOND
     1     1     2 ar  
     2     1    11 ar  
     3     1    35 1   
     4     2     3 ar  
     5     2    36 1   
     6     3     4 1   
     7     3    14 ar  
     8     4     7 1   
     9     4    12 1   
    10     4    37 1   
    11     5    12 1   
    12     5    13 1   
    13     5    38 1   
    14     5    39 1   
    15     6    18 1   
    16     6    19 1   
    17     6    40 1   
    18     6    41 1   
    19     7    23 2   
    20     7    24 1   
    21     8    25 ar  
    22     8    26 ar  
    23     8    42 1   
    24     9    26 1   
    25     9    27 1   
    26     9    43 1   
    27     9    44 1   
    28    10    45 1   
    29    10    46 1   
    30    10    47 1   
    31    10    64 1   
    32    11    15 ar  
    33    11    64 1   
    34    12    16 1   
    35    13    14 1   
    36    13    48 1   
    37    13    49 1   
    38    14    15 ar  
    39    16    17 2   
    40    16    18 1   
    41    18    50 1   
    42    18    51 1   
    43    19    20 1   
    44    19    52 1   
    45    19    53 1   
    46    20    21 1   
    47    20    22 1   
    48    24    25 1   
    49    24    54 1   
    50    25    34 ar  
    51    26    31 ar  
    52    27    28 1   
    53    27    55 1   
    54    27    56 1   
    55    28    29 1   
    56    28    30 1   
    57    28    31 1   
    58    29    57 1   
    59    29    58 1   
    60    29    59 1   
    61    30    60 1   
    62    30    61 1   
    63    30    62 1   
    64    31    32 ar  
    65    32    33 1   
    66    32    34 ar  
    67    34    63 1   
@<TRIPOS>SUBSTRUCTURE
     1 HQ7         1 TEMP              0 ****  ****    0 ROOT
