@<TRIPOS>MOLECULE
HQ7
   64    67     1     0     0
SMALL
abcg2


@<TRIPOS>ATOM
      1 C4           0.1780    -3.8800     1.7350 ca         1 HQ7      -0.194000
      2 C5           0.3520    -2.5220     1.8380 ca         1 HQ7      -0.040000
      3 C6           1.0060    -1.8130     0.8230 ca         1 HQ7      -0.206300
      4 C7           1.2220    -0.3260     0.9440 c6         1 HQ7       0.082000
      5 C10          2.0620    -0.3530    -1.3230 c6         1 HQ7       0.102000
      6 C17          5.6500     1.7760     0.1000 c3         1 HQ7      -0.046400
      7 C22         -0.0200     0.5630     0.7260 c          1 HQ7       0.590100
      8 C26         -2.7830     1.7740     0.3170 ca         1 HQ7      -0.140000
      9 C28         -4.6760     3.5330     0.1630 c5         1 HQ7      -0.037100
     10 C1           1.0520    -6.4870    -0.6470 c3         1 HQ7       0.160900
     11 C3           0.6890    -4.5060     0.5890 ca         1 HQ7       0.595300
     12 N9           2.2530     0.1170     0.0360 n          1 HQ7      -0.415800
     13 C11          2.2230    -1.8630    -1.3770 c6         1 HQ7      -0.160700
     14 C12          1.4730    -2.5360    -0.2650 ca         1 HQ7       0.421300
     15 N13          1.3130    -3.8580    -0.3660 nb         1 HQ7      -0.769000
     16 C14          3.3580     0.7550     0.5050 c          1 HQ7       0.613100
     17 O15          3.4740     1.0440     1.6850 o          1 HQ7      -0.576100
     18 C16          4.4370     1.0850    -0.5060 c3         1 HQ7      -0.150400
     19 C18          6.7110     2.0470    -0.9540 c3         1 HQ7      -0.209400
     20 C19          7.9860     2.7480    -0.4520 c          1 HQ7       0.718000
     21 O20          8.7900     3.1180    -1.3340 o          1 HQ7      -0.738500
     22 O21          8.1300     2.8810     0.7800 o          1 HQ7      -0.738500
     23 O23          0.0790     1.7660     0.8680 o          1 HQ7      -0.552100
     24 N24         -1.1540    -0.0840     0.3790 ns         1 HQ7      -0.149000
     25 C25         -2.4310     0.4350     0.1350 ca         1 HQ7       0.017000
     26 C27         -4.0920     2.1520     0.0630 ca         1 HQ7      -0.036300
     27 C29         -6.1850     3.2670     0.1680 c5         1 HQ7      -0.074400
     28 C30         -6.3980     1.9390    -0.5990 c5         1 HQ7       0.014300
     29 C31         -7.6020     1.1830    -0.0440 c3         1 HQ7      -0.078600
     30 C32         -6.5850     2.2000    -2.0980 c3         1 HQ7      -0.078600
     31 C33         -5.0670     1.2560    -0.3640 ca         1 HQ7      -0.157300
     32 C34         -4.6780    -0.0530    -0.5550 ca         1 HQ7       0.212000
     33 F35         -5.5660    -0.9600    -0.9980 f          1 HQ7      -0.185000
     34 C36         -3.3890    -0.4800    -0.3070 ca         1 HQ7      -0.226000
     35 H1          -0.3210    -4.4490     2.5070 ha         1 HQ7       0.138000
     36 H2          -0.0170    -1.9990     2.7120 ha         1 HQ7       0.127000
     37 H3           1.5500    -0.1030     1.9620 h1         1 HQ7       0.123700
     38 H4           1.0590    -0.0700    -1.6550 h1         1 HQ7       0.059200
     39 H5           2.7520     0.1360    -2.0040 h1         1 HQ7       0.059200
     40 H6           5.3430     2.7140     0.5680 hc         1 HQ7       0.058700
     41 H7           6.0690     1.1580     0.8950 hc         1 HQ7       0.058700
     42 H8          -2.0630     2.5040     0.6490 ha         1 HQ7       0.158000
     43 H9          -4.3350     4.0730     1.0480 hc         1 HQ7       0.058700
     44 H10         -4.3720     4.1280    -0.7040 hc         1 HQ7       0.058700
     45 H11          0.6040    -6.1230    -1.5730 h1         1 HQ7       0.046033
     46 H12          2.1340    -6.3730    -0.7140 h1         1 HQ7       0.046033
     47 H13          0.8080    -7.5380    -0.5190 h1         1 HQ7       0.046033
     48 H14          1.8760    -2.2460    -2.3390 hc         1 HQ7       0.073700
     49 H15          3.2820    -2.1300    -1.2980 hc         1 HQ7       0.073700
     50 H16          4.0080     1.7130    -1.2940 hc         1 HQ7       0.045700
     51 H17          4.7480     0.1620    -1.0080 hc         1 HQ7       0.045700
     52 H18          7.0130     1.1020    -1.4230 hc         1 HQ7       0.012700
     53 H19          6.2870     2.6440    -1.7700 hc         1 HQ7       0.012700
     54 H21         -1.0690    -1.0800     0.2430 hn         1 HQ7       0.159000
     55 H22         -6.5220     3.1390     1.2000 hc         1 HQ7       0.045200
     56 H23         -6.7650     4.0830    -0.2640 hc         1 HQ7       0.045200
     57 H24         -8.4860     1.8230    -0.0750 hc         1 HQ7       0.035867
     58 H25         -7.8300     0.2840    -0.6170 hc         1 HQ7       0.035867
     59 H26         -7.4430     0.8910     0.9950 hc         1 HQ7       0.035867
     60 H27         -5.7790     2.8160    -2.5040 hc         1 HQ7       0.035867
     61 H28         -6.6060     1.2670    -2.6630 hc         1 HQ7       0.035867
     62 H29         -7.5270     2.7200    -2.2810 hc         1 HQ7       0.035867
     63 H30         -3.1350    -1.5230    -0.4600 ha         1 HQ7       0.127000
     64 O2           0.5210    -5.8240     0.4920 os         1 HQ7      -0.462300
@<TRIPOS>BOND
     1     1     2 ar  
     2     1    11 ar  
     3     1    35 1   
     4     2     3 ar  
     5     2    36 1   
     6     3     4 1   
     7     3    14 ar  
     8     4     7 1   
     9     4    12 1   
    10     4    37 1   
    11     5    12 1   
    12     5    13 1   
    13     5    38 1   
    14     5    39 1   
    15     6    18 1   
    16     6    19 1   
    17     6    40 1   
    18     6    41 1   
    19     7    23 2   
    20     7    24 1   
    21     8    25 ar  
    22     8    26 ar  
    23     8    42 1   
    24     9    26 1   
    25     9    27 1   
    26     9    43 1   
    27     9    44 1   
    28    10    45 1   
    29    10    46 1   
    30    10    47 1   
    31    10    64 1   
    32    11    15 ar  
    33    11    64 1   
    34    12    16 1   
    35    13    14 1   
    36    13    48 1   
    37    13    49 1   
    38    14    15 ar  
    39    16    17 2   
    40    16    18 1   
    41    18    50 1   
    42    18    51 1   
    43    19    20 1   
    44    19    52 1   
    45    19    53 1   
    46    20    21 1   
    47    20    22 1   
    48    24    25 1   
    49    24    54 1   
    50    25    34 ar  
    51    26    31 ar  
    52    27    28 1   
    53    27    55 1   
    54    27    56 1   
    55    28    29 1   
    56    28    30 1   
    57    28    31 1   
    58    29    57 1   
    59    29    58 1   
    60    29    59 1   
    61    30    60 1   
    62    30    61 1   
    63    30    62 1   
    64    31    32 ar  
    65    32    33 1   
    66    32    34 ar  
    67    34    63 1   
@<TRIPOS>SUBSTRUCTURE
     1 HQ7         1 TEMP              0 ****  ****    0 ROOT
