@<TRIPOS>MOLECULE
HQ8
   23    23     1     0     0
SMALL
abcg2


@<TRIPOS>ATOM
      1 C1           1.3320     0.5700    -0.0290 c6         1 HQ8       0.136300
      2 C2           0.7880    -0.8420     0.1720 c6         1 HQ8       0.160300
      3 C4          -0.6000    -0.9580    -0.4430 c6         1 HQ8       0.189300
      4 C5          -1.5600     0.0790     0.1450 c6         1 HQ8       0.160300
      5 C6          -1.0140     1.4990    -0.0350 c6         1 HQ8       0.136300
      6 C7           0.3870     1.6120     0.5550 c6         1 HQ8      -0.137400
      7 O1           2.6060     0.6060     0.5880 oh         1 HQ8      -0.722500
      8 O3          -1.0620    -2.2720    -0.2370 oh         1 HQ8      -0.686000
      9 O4           1.6190    -1.7970    -0.4450 oh         1 HQ8      -0.702000
     10 O5          -1.0400     1.7740    -1.4210 oh         1 HQ8      -0.722500
     11 O2          -1.7400    -0.2120     1.5110 oh         1 HQ8      -0.702000
     12 H1           1.4340     0.7410    -1.1090 h1         1 HQ8       0.039200
     13 H2           0.7190    -1.0310     1.2550 h1         1 HQ8       0.057200
     14 H3          -0.5070    -0.7440    -1.5170 h1         1 HQ8       0.055700
     15 H4          -2.5150     0.0080    -0.3980 h1         1 HQ8       0.057200
     16 H5          -1.6810     2.1910     0.5010 h1         1 HQ8       0.039200
     17 H6           0.3280     1.4880     1.6390 hc         1 HQ8       0.057700
     18 H7           0.7810     2.6180     0.3770 hc         1 HQ8       0.057700
     19 H8           3.1070     1.3340     0.2110 ho         1 HQ8       0.506500
     20 H9          -1.8750    -2.3850    -0.7400 ho         1 HQ8       0.499000
     21 H10          2.5160    -1.6430    -0.1280 ho         1 HQ8       0.506500
     22 H11         -0.7090     2.6670    -1.5580 ho         1 HQ8       0.506500
     23 H12         -2.4080     0.3870     1.8610 ho         1 HQ8       0.506500
@<TRIPOS>BOND
     1     1     2 1   
     2     1     6 1   
     3     1     7 1   
     4     1    12 1   
     5     2     3 1   
     6     2     9 1   
     7     2    13 1   
     8     3     4 1   
     9     3     8 1   
    10     3    14 1   
    11     4     5 1   
    12     4    11 1   
    13     4    15 1   
    14     5     6 1   
    15     5    10 1   
    16     5    16 1   
    17     6    17 1   
    18     6    18 1   
    19     7    19 1   
    20     8    20 1   
    21     9    21 1   
    22    10    22 1   
    23    11    23 1   
@<TRIPOS>SUBSTRUCTURE
     1 HQ8         1 TEMP              0 ****  ****    0 ROOT
