@<TRIPOS>MOLECULE
HQ8
   23    23     1     0     0
SMALL
No Charge or Current Charge


@<TRIPOS>ATOM
      1 C1           1.3750     0.5120    -0.0260 c6         1 HQ8       0.136300
      2 C2           0.7820    -0.9240     0.1050 c6         1 HQ8       0.160300
      3 C4          -0.6160    -1.0190    -0.6040 c6         1 HQ8       0.189300
      4 C5          -1.6010     0.0540    -0.0310 c6         1 HQ8       0.160300
      5 C6          -0.9890     1.4950    -0.1210 c6         1 HQ8       0.136300
      6 C7           0.4030     1.5650     0.5630 c6         1 HQ8      -0.137400
      7 O1           2.6460     0.5800     0.6430 oh         1 HQ8      -0.722500
      8 O3          -1.2090    -2.3220    -0.4200 oh         1 HQ8      -0.686000
      9 O4           1.7400    -1.8610    -0.4270 oh         1 HQ8      -0.702000
     10 O5          -0.8650     1.9090    -1.4900 oh         1 HQ8      -0.722500
     11 O2          -1.9470    -0.2900     1.3320 oh         1 HQ8      -0.702000
     12 H1           1.5140     0.7300    -1.0960 h1         1 HQ8       0.039200
     13 H2           0.6340    -1.1240     1.1770 h1         1 HQ8       0.057200
     14 H3          -0.4720    -0.8220    -1.6760 h1         1 HQ8       0.055700
     15 H4          -2.5100     0.0400    -0.6510 h1         1 HQ8       0.057200
     16 H5          -1.6660     2.1870     0.4030 h1         1 HQ8       0.039200
     17 H6           0.2890     1.4000     1.6430 hc         1 HQ8       0.057700
     18 H7           0.8230     2.5740     0.4510 hc         1 HQ8       0.057700
     19 H8           2.9730     1.5060     0.5460 ho         1 HQ8       0.506500
     20 H9          -1.6600    -2.2490     0.4550 ho         1 HQ8       0.499000
     21 H10          2.6100    -1.4770    -0.1610 ho         1 HQ8       0.506500
     22 H11         -0.7060     2.8820    -1.4850 ho         1 HQ8       0.506500
     23 H12         -2.6430     0.3440     1.6240 ho         1 HQ8       0.506500
@<TRIPOS>BOND
     1     1     2 1   
     2     1     6 1   
     3     1     7 1   
     4     1    12 1   
     5     2     3 1   
     6     2     9 1   
     7     2    13 1   
     8     3     4 1   
     9     3     8 1   
    10     3    14 1   
    11     4     5 1   
    12     4    11 1   
    13     4    15 1   
    14     5     6 1   
    15     5    10 1   
    16     5    16 1   
    17     6    17 1   
    18     6    18 1   
    19     7    19 1   
    20     8    20 1   
    21     9    21 1   
    22    10    22 1   
    23    11    23 1   
@<TRIPOS>SUBSTRUCTURE
     1 HQ8         1 TEMP              0 ****  ****    0 ROOT
