@<TRIPOS>MOLECULE
HQ9
   19    19     1     0     0
SMALL
No Charge or Current Charge


@<TRIPOS>ATOM
      1 C1           2.2970    -0.8770    -0.2670 c          1 HQ9       0.741000
      2 C2           1.4700    -0.4540     0.9560 c3         1 HQ9      -0.204200
      3 C7           0.0440    -0.0920     0.5570 c2         1 HQ9       0.051600
      4 C8          -0.8630    -1.0300     0.1900 ce         1 HQ9      -0.355200
      5 C3          -2.2730    -0.7240    -0.1430 c          1 HQ9       0.579500
      6 O3          -3.0600    -1.5900    -0.4960 o          1 HQ9      -0.580100
      7 C4          -2.6720     0.6980     0.0120 ce         1 HQ9      -0.286200
      8 C5          -1.8030     1.6680     0.3820 c2         1 HQ9      -0.190200
      9 C6          -0.3260     1.4040     0.6310 c6         1 HQ9       0.217700
     10 O6           0.4160     2.1470    -0.3370 oh         1 HQ9      -0.592000
     11 O1           2.9220    -0.0200    -0.8730 o          1 HQ9      -0.717000
     12 O2           2.2290    -2.0440    -0.6280 o          1 HQ9      -0.717000
     13 H21C         1.3830    -1.3010     1.6460 hc         1 HQ9       0.035200
     14 H22C         1.9240     0.4280     1.4240 hc         1 HQ9       0.035200
     15 H2          -0.5890    -2.0800     0.1370 ha         1 HQ9       0.198000
     16 H4          -3.7200     0.9200    -0.1790 ha         1 HQ9       0.177000
     17 H5          -2.1380     2.6990     0.5030 ha         1 HQ9       0.159000
     18 H6          -0.0820     1.7680     1.6410 h1         1 HQ9       0.029700
     19 H6'A         0.1650     3.0870    -0.2170 ho         1 HQ9       0.419000
@<TRIPOS>BOND
     1     1     2 1   
     2     1    11 1   
     3     1    12 1   
     4     2     3 1   
     5     2    13 1   
     6     2    14 1   
     7     3     4 2   
     8     3     9 1   
     9     4     5 1   
    10     4    15 1   
    11     5     6 2   
    12     5     7 1   
    13     7     8 2   
    14     7    16 1   
    15     8     9 1   
    16     8    17 1   
    17     9    10 1   
    18     9    18 1   
    19    10    19 1   
@<TRIPOS>SUBSTRUCTURE
     1 HQ9         1 TEMP              0 ****  ****    0 ROOT
