@<TRIPOS>MOLECULE
HQ9
   19    19     1     0     0
SMALL
bcc


@<TRIPOS>ATOM
      1 C1           2.3480    -0.2400    -0.3540 c          1 HQ9       0.951600
      2 C2           1.4510    -0.3200     0.9140 c3         1 HQ9      -0.204200
      3 C7           0.0080    -0.1240     0.6170 c2         1 HQ9       0.051600
      4 C8          -0.8560    -1.1420     0.5030 ce         1 HQ9      -0.305200
      5 C3          -2.2640    -0.9580     0.1590 c          1 HQ9       0.579500
      6 O3          -3.0460    -1.8970     0.1020 o          1 HQ9      -0.580100
      7 C4          -2.6990     0.4160    -0.1400 ce         1 HQ9      -0.236200
      8 C5          -1.8610     1.4420    -0.0090 c2         1 HQ9      -0.140200
      9 C6          -0.4620     1.2970     0.5010 c6         1 HQ9       0.194500
     10 O6           0.4560     2.0390    -0.2680 oh         1 HQ9      -0.529800
     11 O1           3.5050     0.1820    -0.1790 o          1 HQ9      -0.822300
     12 O2           1.8480    -0.6550    -1.4140 o          1 HQ9      -0.822300
     13 H21C         1.5970    -1.3150     1.3460 hc         1 HQ9       0.035200
     14 H22C         1.7940     0.4020     1.6570 hc         1 HQ9       0.035200
     15 H2          -0.5220    -2.1620     0.6590 ha         1 HQ9       0.148000
     16 H4          -3.7180     0.5580    -0.4770 ha         1 HQ9       0.127000
     17 H5          -2.1900     2.4520    -0.2300 ha         1 HQ9       0.109000
     18 H6          -0.4800     1.6730     1.5390 h1         1 HQ9       0.029700
     19 H6'A         0.4140     2.9580     0.0120 ho         1 HQ9       0.380000
@<TRIPOS>BOND
     1     1     2 1   
     2     1    11 1   
     3     1    12 1   
     4     2     3 1   
     5     2    13 1   
     6     2    14 1   
     7     3     4 2   
     8     3     9 1   
     9     4     5 1   
    10     4    15 1   
    11     5     6 2   
    12     5     7 1   
    13     7     8 2   
    14     7    16 1   
    15     8     9 1   
    16     8    17 1   
    17     9    10 1   
    18     9    18 1   
    19    10    19 1   
@<TRIPOS>SUBSTRUCTURE
     1 HQ9         1 TEMP              0 ****  ****    0 ROOT
