@<TRIPOS>MOLECULE
HQA
   28    29     1     0     0
SMALL
bcc


@<TRIPOS>ATOM
      1 OXT         22.8390    43.0600    -3.4160 o          1 HQA      -0.829800
      2 C           21.8930    43.6630    -3.9600 c          1 HQA       0.936600
      3 O           20.7030    43.6880    -3.5910 o          1 HQA      -0.829800
      4 CA          22.2660    44.5150    -5.2000 c3         1 HQA       0.026500
      5 N           21.1030    44.8060    -6.0130 n8         1 HQA      -0.878800
      6 C03         23.0230    45.7680    -4.6940 c3         1 HQA      -0.074100
      7 C04         23.5210    46.6170    -5.8180 ca         1 HQA      -0.144600
      8 C05         24.6970    46.2370    -6.5130 ca         1 HQA       0.413200
      9 N06         25.1930    46.8690    -7.5390 nb         1 HQA      -0.648000
     10 C07         24.5500    47.9710    -7.9850 ca         1 HQA       0.360600
     11 C08         25.0840    48.6690    -9.1080 ca         1 HQA       0.108800
     12 O09         26.1990    48.1650    -9.6570 oh         1 HQA      -0.462100
     13 C10         24.4500    49.7980    -9.5700 ca         1 HQA      -0.262000
     14 C11         23.2780    50.2680    -8.9480 ca         1 HQA      -0.095000
     15 C12         22.7380    49.6180    -7.8730 ca         1 HQA      -0.151000
     16 C13         23.3690    48.4570    -7.3750 ca         1 HQA      -0.105300
     17 C14         22.8690    47.7320    -6.2690 ca         1 HQA      -0.129000
     18 HA          22.9710    43.9360    -5.8070 h1         1 HQA       0.047700
     19 HN          20.3750    45.1860    -5.4200 hn         1 HQA       0.324300
     20 HNA         21.3160    45.5080    -6.7110 hn         1 HQA       0.324300
     21 H03         22.3560    46.3520    -4.0520 hc         1 HQA       0.060200
     22 H03A        23.8650    45.4440    -4.0780 hc         1 HQA       0.060200
     23 H05         25.2400    45.3570    -6.1760 h4         1 HQA       0.031100
     24 HO09        26.4780    48.7070   -10.4050 ho         1 HQA       0.410000
     25 H10         24.8520    50.3330   -10.4230 ha         1 HQA       0.120000
     26 H11         22.8050    51.1600    -9.3380 ha         1 HQA       0.119000
     27 H12         21.8360    49.9790    -7.3960 ha         1 HQA       0.131000
     28 H14         21.9670    48.0780    -5.7760 ha         1 HQA       0.136000
@<TRIPOS>BOND
     1     1     2 1   
     2     2     3 1   
     3     2     4 1   
     4     4     5 1   
     5     4     6 1   
     6     4    18 1   
     7     5    19 1   
     8     5    20 1   
     9     6     7 1   
    10     6    21 1   
    11     6    22 1   
    12     7     8 ar  
    13     7    17 ar  
    14     8     9 ar  
    15     8    23 1   
    16     9    10 ar  
    17    10    11 ar  
    18    10    16 ar  
    19    11    12 1   
    20    11    13 ar  
    21    12    24 1   
    22    13    14 ar  
    23    13    25 1   
    24    14    15 ar  
    25    14    26 1   
    26    15    16 ar  
    27    15    27 1   
    28    16    17 ar  
    29    17    28 1   
@<TRIPOS>SUBSTRUCTURE
     1 HQA         1 TEMP              0 ****  ****    0 ROOT
