@<TRIPOS>MOLECULE
HQA
   28    29     1     0     0
SMALL
No Charge or Current Charge


@<TRIPOS>ATOM
      1 OXT         22.5540    42.6170    -3.4610 o          1 HQA      -0.724500
      2 C           21.9120    43.6180    -3.7520 c          1 HQA       0.726000
      3 O           20.9250    43.9850    -3.1240 o          1 HQA      -0.724500
      4 CA          22.3260    44.4250    -5.0540 c3         1 HQA       0.026500
      5 N           21.2790    44.5530    -6.1330 n8         1 HQA      -0.989200
      6 C03         22.8760    45.8270    -4.6810 c3         1 HQA      -0.074100
      7 C04         23.4390    46.6030    -5.8720 ca         1 HQA      -0.079300
      8 C05         24.5780    46.1420    -6.5610 ca         1 HQA       0.347900
      9 N06         25.1240    46.7920    -7.6160 nb         1 HQA      -0.648000
     10 C07         24.5530    47.9540    -8.0450 ca         1 HQA       0.230000
     11 C08         25.0870    48.6790    -9.1520 ca         1 HQA       0.174100
     12 O09         26.1940    48.2350    -9.8290 oh         1 HQA      -0.501100
     13 C10         24.4880    49.8770    -9.5830 ca         1 HQA      -0.244000
     14 C11         23.3540    50.3780    -8.9280 ca         1 HQA      -0.077000
     15 C12         22.8120    49.6830    -7.8380 ca         1 HQA      -0.133000
     16 C13         23.4010    48.4830    -7.3970 ca         1 HQA      -0.040000
     17 C14         22.8420    47.8010    -6.3010 ca         1 HQA      -0.111000
     18 HA          23.1600    43.8650    -5.4990 h1         1 HQA       0.047700
     19 HN          20.4370    44.9760    -5.7230 hn         1 HQA       0.379500
     20 HNA         21.5920    45.2470    -6.8200 hn         1 HQA       0.379500
     21 H03         22.0840    46.4030    -4.1860 hc         1 HQA       0.060200
     22 H03A        23.6660    45.7010    -3.9300 hc         1 HQA       0.060200
     23 H05         25.0750    45.2210    -6.2560 h4         1 HQA       0.031100
     24 HO09        26.3890    48.8750   -10.5450 ho         1 HQA       0.449000
     25 H10         24.8990    50.4250   -10.4280 ha         1 HQA       0.102000
     26 H11         22.8940    51.3050    -9.2650 ha         1 HQA       0.101000
     27 H12         21.9320    50.0790    -7.3360 ha         1 HQA       0.113000
     28 H14         21.9630    48.1940    -5.7940 ha         1 HQA       0.118000
@<TRIPOS>BOND
     1     1     2 1   
     2     2     3 1   
     3     2     4 1   
     4     4     5 1   
     5     4     6 1   
     6     4    18 1   
     7     5    19 1   
     8     5    20 1   
     9     6     7 1   
    10     6    21 1   
    11     6    22 1   
    12     7     8 ar  
    13     7    17 ar  
    14     8     9 ar  
    15     8    23 1   
    16     9    10 ar  
    17    10    11 ar  
    18    10    16 ar  
    19    11    12 1   
    20    11    13 ar  
    21    12    24 1   
    22    13    14 ar  
    23    13    25 1   
    24    14    15 ar  
    25    14    26 1   
    26    15    16 ar  
    27    15    27 1   
    28    16    17 ar  
    29    17    28 1   
@<TRIPOS>SUBSTRUCTURE
     1 HQA         1 TEMP              0 ****  ****    0 ROOT
