@<TRIPOS>MOLECULE
HQB
   28    30     1     0     0
SMALL
abcg2


@<TRIPOS>ATOM
      1 C1           3.0550     0.7850     0.0630 ca         1 HQB      -0.161000
      2 C2           4.2020     0.0480     0.0640 ca         1 HQB       0.352900
      3 C3           3.1170    -1.9410     0.0380 ca         1 HQB       0.386900
      4 C4           1.8490    -1.3050     0.0300 ca         1 HQB      -0.157000
      5 C5           0.6710    -2.0510     0.0040 ca         1 HQB       0.042000
      6 C6          -0.5510    -1.4140    -0.0110 ca         1 HQB      -0.226000
      7 C7          -0.6530     0.0100    -0.0110 ca         1 HQB       0.155000
      8 C8           0.5430     0.7360     0.0140 ca         1 HQB      -0.205200
      9 C9          -2.9200    -0.1510     0.0020 ca         1 HQB       0.415900
     10 C10         -5.3780    -0.2640     0.0250 c3         1 HQB       0.227100
     11 C11         -1.7910    -2.1160    -0.0210 ca         1 HQB       0.192900
     12 O1           0.9840     2.7740     0.9330 o          1 HQB      -0.390000
     13 N1           0.4550     2.1820     0.0190 no         1 HQB       0.711200
     14 O           -0.1380     2.7150    -0.8850 o          1 HQB      -0.390000
     15 C            1.8000     0.1200     0.0490 ca         1 HQB       0.086000
     16 N2          -1.8460     0.6170     0.0040 nb         1 HQB      -0.275000
     17 N3          -4.1140     0.4350     0.0180 nu         1 HQB      -0.897100
     18 N4          -2.9360    -1.5250    -0.0180 nb         1 HQB      -0.216000
     19 N            4.2510    -1.3080     0.0550 nb         1 HQB      -0.665000
     20 H1           3.1320     1.8610     0.0690 ha         1 HQB       0.148000
     21 H2           5.1600     0.5530     0.0740 h4         1 HQB       0.027100
     22 H3           3.1470    -3.0270     0.0260 h4         1 HQB       0.020100
     23 H4           0.7190    -3.1340    -0.0020 ha         1 HQB       0.125000
     24 H5          -5.5000    -0.8910    -0.8580 h1         1 HQB       0.048700
     25 H6          -5.4910    -0.8910     0.9090 h1         1 HQB       0.048700
     26 H7          -6.1700     0.4800     0.0290 h1         1 HQB       0.048700
     27 H8          -1.7820    -3.2020    -0.0300 h4         1 HQB       0.028100
     28 H9          -4.1200     1.4420     0.0350 hn         1 HQB       0.520000
@<TRIPOS>BOND
     1     1     2 ar  
     2     1    15 ar  
     3     1    20 1   
     4     2    19 ar  
     5     2    21 1   
     6     3     4 ar  
     7     3    19 ar  
     8     3    22 1   
     9     4     5 ar  
    10     4    15 ar  
    11     5     6 ar  
    12     5    23 1   
    13     6     7 ar  
    14     6    11 ar  
    15     7     8 ar  
    16     7    16 ar  
    17     8    13 1   
    18     8    15 ar  
    19     9    16 ar  
    20     9    17 1   
    21     9    18 ar  
    22    10    17 1   
    23    10    24 1   
    24    10    25 1   
    25    10    26 1   
    26    11    18 ar  
    27    11    27 1   
    28    12    13 1   
    29    13    14 1   
    30    17    28 1   
@<TRIPOS>SUBSTRUCTURE
     1 HQB         1 TEMP              0 ****  ****    0 ROOT
