@<TRIPOS>MOLECULE
HQB
   28    30     1     0     0
SMALL
No Charge or Current Charge


@<TRIPOS>ATOM
      1 C1           3.0350     0.7950     0.0330 ca         1 HQB      -0.161000
      2 C2           4.2450     0.0830     0.0320 ca         1 HQB       0.352900
      3 C3           3.1410    -1.9490     0.0220 ca         1 HQB       0.386900
      4 C4           1.8820    -1.3200     0.0230 ca         1 HQB      -0.157000
      5 C5           0.7060    -2.0860     0.0130 ca         1 HQB       0.042000
      6 C6          -0.5420    -1.4400     0.0110 ca         1 HQB      -0.226000
      7 C7          -0.6350    -0.0300     0.0210 ca         1 HQB       0.155000
      8 C8           0.5540     0.7300     0.0330 ca         1 HQB      -0.205200
      9 C9          -2.9310    -0.2420     0.0180 ca         1 HQB       0.415900
     10 C10         -5.4980    -0.1910     0.0150 c3         1 HQB       0.227100
     11 C11         -1.7350    -2.1860     0.0020 ca         1 HQB       0.192900
     12 O1           0.7520     2.7880     1.0990 o          1 HQB      -0.390000
     13 N1           0.4580     2.2040     0.0490 no         1 HQB       0.711200
     14 O            0.2020     2.7750    -1.0190 o          1 HQB      -0.390000
     15 C            1.8160     0.0870     0.0330 ca         1 HQB       0.086000
     16 N2          -1.8520     0.5570     0.0280 nb         1 HQB      -0.275000
     17 N3          -4.1520     0.4160     0.0240 nu         1 HQB      -0.897100
     18 N4          -2.9390    -1.5870     0.0060 nb         1 HQB      -0.216000
     19 N            4.3080    -1.2670     0.0270 nb         1 HQB      -0.665000
     20 H1           3.0730     1.8790     0.0330 ha         1 HQB       0.148000
     21 H2           5.1970     0.6120     0.0330 h4         1 HQB       0.027100
     22 H3           3.2210    -3.0360     0.0160 h4         1 HQB       0.020100
     23 H4           0.7600    -3.1730     0.0050 ha         1 HQB       0.125000
     24 H5          -5.6380    -0.8080    -0.8820 h1         1 HQB       0.048700
     25 H6          -5.6400    -0.8260     0.9000 h1         1 HQB       0.048700
     26 H7          -6.2720     0.5880     0.0220 h1         1 HQB       0.048700
     27 H8          -1.7300    -3.2750    -0.0060 h4         1 HQB       0.028100
     28 H9          -4.0920     1.4370     0.0310 hn         1 HQB       0.520000
@<TRIPOS>BOND
     1     1     2 ar  
     2     1    15 ar  
     3     1    20 1   
     4     2    19 ar  
     5     2    21 1   
     6     3     4 ar  
     7     3    19 ar  
     8     3    22 1   
     9     4     5 ar  
    10     4    15 ar  
    11     5     6 ar  
    12     5    23 1   
    13     6     7 ar  
    14     6    11 ar  
    15     7     8 ar  
    16     7    16 ar  
    17     8    13 1   
    18     8    15 ar  
    19     9    16 ar  
    20     9    17 1   
    21     9    18 ar  
    22    10    17 1   
    23    10    24 1   
    24    10    25 1   
    25    10    26 1   
    26    11    18 ar  
    27    11    27 1   
    28    12    13 1   
    29    13    14 1   
    30    17    28 1   
@<TRIPOS>SUBSTRUCTURE
     1 HQB         1 TEMP              0 ****  ****    0 ROOT
