@<TRIPOS>MOLECULE
HQC
   58    60     1     0     0
SMALL
No Charge or Current Charge


@<TRIPOS>ATOM
      1 O33          7.8450     0.0500     1.1720 o          1 HQC      -0.549100
      2 C20          7.6950     1.0810     0.5200 c          1 HQC       0.559900
      3 C17          6.3250     1.6000     0.0090 c3         1 HQC       0.010700
      4 C9           5.9380     2.9510     0.6730 c3         1 HQC      -0.226400
      5 C11          4.6910     3.5640     0.0190 c          1 HQC       0.720000
      6 O32          4.8520     4.2770    -0.9600 o          1 HQC      -0.725000
      7 O29          3.6000     3.3180     0.5100 o          1 HQC      -0.725000
      8 N1           5.2750     0.5720     0.1930 ns         1 HQC      -0.448900
      9 C19          4.3430     0.2030    -0.7570 c          1 HQC       0.609100
     10 O30          4.3500     0.6760    -1.8880 o          1 HQC      -0.628100
     11 C10          3.3230    -0.8690    -0.2980 c3         1 HQC      -0.077400
     12 C14          3.4680    -2.1910    -1.0260 cc         1 HQC      -0.208300
     13 S35          3.1690    -2.3410    -2.7610 ss         1 HQC       0.221000
     14 C7           3.5390    -4.0610    -2.7120 cc         1 HQC      -0.258000
     15 C15          3.8640    -4.4580    -1.4400 cd         1 HQC      -0.132000
     16 C5           3.8240    -3.4040    -0.4900 cd         1 HQC      -0.134000
     17 C12          1.8770    -0.3100    -0.3600 c3         1 HQC      -0.059400
     18 C13          0.8140    -1.2530     0.2520 c3         1 HQC      -0.076400
     19 C6          -0.6130    -0.6640     0.2100 c3         1 HQC      -0.094400
     20 C16         -1.6680    -1.6090     0.8160 c3         1 HQC       0.102000
     21 N3          -3.0090    -1.0280     0.7600 ns         1 HQC      -0.480900
     22 C8          -4.1570    -1.6450     1.2210 c          1 HQC       0.500600
     23 O31         -4.1120    -2.7640     1.7260 o          1 HQC      -0.607100
     24 C18         -5.4560    -0.8400     1.0560 ca         1 HQC       0.316500
     25 N2          -5.4060     0.4040     0.4790 nb         1 HQC      -0.691000
     26 C24         -6.6750    -1.3940     1.4990 ca         1 HQC      -0.108000
     27 C23         -7.8670    -0.6680     1.3530 ca         1 HQC      -0.080000
     28 C22         -7.8110     0.6050     0.7620 ca         1 HQC      -0.029000
     29 C4          -8.9890     1.3610     0.6010 ca         1 HQC      -0.145000
     30 C21         -6.5600     1.1150     0.3340 ca         1 HQC       0.191000
     31 C25         -6.5310     2.4020    -0.2590 ca         1 HQC       0.179100
     32 O28         -5.3390     2.9180    -0.6810 oh         1 HQC      -0.520100
     33 C26         -7.7060     3.1540    -0.4200 ca         1 HQC      -0.171000
     34 C27         -8.9370     2.6340     0.0100 ca         1 HQC      -0.056000
     35 H20          8.5690     1.7150     0.2530 h4         1 HQC      -0.030800
     36 H17          6.4690     1.7770    -1.0660 h1         1 HQC       0.114700
     37 H91          6.8000     3.6100     0.5070 hc         1 HQC       0.031200
     38 H92          5.7510     2.7330     1.7310 hc         1 HQC       0.031200
     39 HN1          5.2240     0.0960     1.0860 hn         1 HQC       0.325500
     40 H10          3.5330    -1.0630     0.7610 hc         1 HQC       0.081700
     41 H7           3.4880    -4.6460    -3.6210 h4         1 HQC       0.141000
     42 H15          4.1260    -5.4810    -1.1840 ha         1 HQC       0.128000
     43 H5           4.0510    -3.5470     0.5630 ha         1 HQC       0.138000
     44 H121         1.8460     0.6480     0.1740 hc         1 HQC       0.057200
     45 H122         1.6120    -0.0940    -1.4030 hc         1 HQC       0.057200
     46 H131         0.8190    -2.2090    -0.2870 hc         1 HQC       0.044700
     47 H132         1.0820    -1.4730     1.2930 hc         1 HQC       0.044700
     48 H61         -0.6280     0.2880     0.7550 hc         1 HQC       0.044700
     49 H62         -0.8820    -0.4460    -0.8310 hc         1 HQC       0.044700
     50 H161        -1.6710    -2.5600     0.2650 h1         1 HQC       0.053200
     51 H162        -1.4160    -1.8190     1.8640 h1         1 HQC       0.053200
     52 HN3         -3.1340    -0.1060     0.3580 hn         1 HQC       0.332500
     53 H24         -6.6930    -2.3810     1.9540 ha         1 HQC       0.150000
     54 H23         -8.8120    -1.0870     1.6920 ha         1 HQC       0.123000
     55 H4          -9.9460     0.9630     0.9320 ha         1 HQC       0.118000
     56 H28         -4.6740     2.2240    -0.4680 ho         1 HQC       0.493000
     57 H26         -7.6610     4.1390    -0.8770 ha         1 HQC       0.132000
     58 H27         -9.8490     3.2150    -0.1140 ha         1 HQC       0.114000
@<TRIPOS>BOND
     1     1     2 2   
     2     2     3 1   
     3     2    35 1   
     4     3     4 1   
     5     3     8 1   
     6     3    36 1   
     7     4     5 1   
     8     4    37 1   
     9     4    38 1   
    10     5     6 1   
    11     5     7 1   
    12     8     9 1   
    13     8    39 1   
    14     9    10 2   
    15     9    11 1   
    16    11    12 1   
    17    11    17 1   
    18    11    40 1   
    19    12    13 1   
    20    12    16 2   
    21    13    14 1   
    22    14    15 2   
    23    14    41 1   
    24    15    16 1   
    25    15    42 1   
    26    16    43 1   
    27    17    18 1   
    28    17    44 1   
    29    17    45 1   
    30    18    19 1   
    31    18    46 1   
    32    18    47 1   
    33    19    20 1   
    34    19    48 1   
    35    19    49 1   
    36    20    21 1   
    37    20    50 1   
    38    20    51 1   
    39    21    22 1   
    40    21    52 1   
    41    22    23 2   
    42    22    24 1   
    43    24    25 ar  
    44    24    26 ar  
    45    25    30 ar  
    46    26    27 ar  
    47    26    53 1   
    48    27    28 ar  
    49    27    54 1   
    50    28    29 ar  
    51    28    30 ar  
    52    29    34 ar  
    53    29    55 1   
    54    30    31 ar  
    55    31    32 1   
    56    31    33 ar  
    57    32    56 1   
    58    33    34 ar  
    59    33    57 1   
    60    34    58 1   
@<TRIPOS>SUBSTRUCTURE
     1 HQC         1 TEMP              0 ****  ****    0 ROOT
