@<TRIPOS>MOLECULE
HQC
   58    60     1     0     0
SMALL
abcg2


@<TRIPOS>ATOM
      1 O33          5.4980     0.9530    -2.8190 o          1 HQC      -0.549100
      2 C20          6.2410     1.5920    -2.1210 c          1 HQC       0.559900
      3 C17          6.2680     1.5540    -0.6140 c3         1 HQC       0.010700
      4 C9           7.6340     1.0730    -0.1400 c3         1 HQC      -0.226400
      5 C11          7.8660     1.2820     1.3740 c          1 HQC       0.720000
      6 O32          7.3300     2.2790     1.8910 o          1 HQC      -0.725000
      7 O29          8.6030     0.4480     1.9330 o          1 HQC      -0.725000
      8 N1           5.2240     0.7280    -0.0760 ns         1 HQC      -0.448900
      9 C19          3.9360     1.1030    -0.0670 c          1 HQC       0.609100
     10 O30          3.5710     2.2120    -0.4220 o          1 HQC      -0.628100
     11 C10          2.9570     0.0610     0.4890 c3         1 HQC      -0.077400
     12 C14          3.3400    -1.3370     0.1170 cc         1 HQC      -0.208300
     13 S35          3.2460    -1.8830    -1.5180 ss         1 HQC       0.221000
     14 C7           3.8000    -3.4500    -1.0970 cc         1 HQC      -0.258000
     15 C15          4.0480    -3.5510     0.2360 cd         1 HQC      -0.132000
     16 C5           3.7820    -2.3380     0.9310 cd         1 HQC      -0.134000
     17 C12          1.5100     0.3910     0.1130 c3         1 HQC      -0.059400
     18 C13          0.5110    -0.5390     0.7870 c3         1 HQC      -0.076400
     19 C6          -0.9300    -0.1850     0.4440 c3         1 HQC      -0.094400
     20 C16         -1.9110    -1.1220     1.1280 c3         1 HQC       0.102000
     21 N3          -3.2760    -0.7570     0.8090 ns         1 HQC      -0.480900
     22 C8          -4.3290    -1.4330     1.2650 c          1 HQC       0.500600
     23 O31         -4.2500    -2.4260     1.9770 o          1 HQC      -0.607100
     24 C18         -5.6690    -0.8910     0.8460 ca         1 HQC       0.316500
     25 N2          -5.6960     0.1910     0.1130 nb         1 HQC      -0.691000
     26 C24         -6.8400    -1.5620     1.2570 ca         1 HQC      -0.108000
     27 C23         -8.0530    -1.0610     0.8770 ca         1 HQC      -0.080000
     28 C22         -8.1170     0.1100     0.0900 ca         1 HQC      -0.029000
     29 C4          -9.3210     0.7040    -0.3430 ca         1 HQC      -0.145000
     30 C21         -6.8820     0.6980    -0.2660 ca         1 HQC       0.191000
     31 C25         -6.8620     1.8810    -1.0600 ca         1 HQC       0.179100
     32 O28         -5.6890     2.4280    -1.3950 oh         1 HQC      -0.520100
     33 C26         -8.0470     2.4400    -1.4650 ca         1 HQC      -0.171000
     34 C27         -9.2710     1.8440    -1.1000 ca         1 HQC      -0.056000
     35 H20          6.9950     2.2750    -2.5550 h4         1 HQC      -0.030800
     36 H17          6.1430     2.5860    -0.2700 h1         1 HQC       0.114700
     37 H91          8.4090     1.6340    -0.6730 hc         1 HQC       0.031200
     38 H92          7.7790     0.0240    -0.4140 hc         1 HQC       0.031200
     39 HN1          5.4520    -0.2260     0.1610 hn         1 HQC       0.325500
     40 H10          3.0460     0.1250     1.5810 hc         1 HQC       0.081700
     41 H7           3.9140    -4.2080    -1.8570 h4         1 HQC       0.141000
     42 H15          4.4050    -4.4540     0.7100 ha         1 HQC       0.128000
     43 H5           3.9130    -2.2090     1.9970 ha         1 HQC       0.138000
     44 H121         1.2980     1.4210     0.4020 hc         1 HQC       0.057200
     45 H122         1.3890     0.3420    -0.9740 hc         1 HQC       0.057200
     46 H131         0.7080    -1.5750     0.4970 hc         1 HQC       0.044700
     47 H132         0.6510    -0.4930     1.8730 hc         1 HQC       0.044700
     48 H61         -1.1380     0.8460     0.7430 hc         1 HQC       0.044700
     49 H62         -1.0700    -0.2350    -0.6410 hc         1 HQC       0.044700
     50 H161        -1.7230    -2.1520     0.8140 h1         1 HQC       0.053200
     51 H162        -1.7630    -1.0890     2.2110 h1         1 HQC       0.053200
     52 HN3         -3.4490     0.0550     0.2360 hn         1 HQC       0.332500
     53 H24         -6.7710    -2.4540     1.8610 ha         1 HQC       0.150000
     54 H23         -8.9710    -1.5540     1.1740 ha         1 HQC       0.123000
     55 H4         -10.2680     0.2550    -0.0730 ha         1 HQC       0.118000
     56 H28         -4.9810     1.8830    -1.0180 ho         1 HQC       0.493000
     57 H26         -8.0420     3.3400    -2.0670 ha         1 HQC       0.132000
     58 H27        -10.1900     2.3090    -1.4310 ha         1 HQC       0.114000
@<TRIPOS>BOND
     1     1     2 2   
     2     2     3 1   
     3     2    35 1   
     4     3     4 1   
     5     3     8 1   
     6     3    36 1   
     7     4     5 1   
     8     4    37 1   
     9     4    38 1   
    10     5     6 1   
    11     5     7 1   
    12     8     9 1   
    13     8    39 1   
    14     9    10 2   
    15     9    11 1   
    16    11    12 1   
    17    11    17 1   
    18    11    40 1   
    19    12    13 1   
    20    12    16 2   
    21    13    14 1   
    22    14    15 2   
    23    14    41 1   
    24    15    16 1   
    25    15    42 1   
    26    16    43 1   
    27    17    18 1   
    28    17    44 1   
    29    17    45 1   
    30    18    19 1   
    31    18    46 1   
    32    18    47 1   
    33    19    20 1   
    34    19    48 1   
    35    19    49 1   
    36    20    21 1   
    37    20    50 1   
    38    20    51 1   
    39    21    22 1   
    40    21    52 1   
    41    22    23 2   
    42    22    24 1   
    43    24    25 ar  
    44    24    26 ar  
    45    25    30 ar  
    46    26    27 ar  
    47    26    53 1   
    48    27    28 ar  
    49    27    54 1   
    50    28    29 ar  
    51    28    30 ar  
    52    29    34 ar  
    53    29    55 1   
    54    30    31 ar  
    55    31    32 1   
    56    31    33 ar  
    57    32    56 1   
    58    33    34 ar  
    59    33    57 1   
    60    34    58 1   
@<TRIPOS>SUBSTRUCTURE
     1 HQC         1 TEMP              0 ****  ****    0 ROOT
