@<TRIPOS>MOLECULE
HQD
   22    23     1     0     0
SMALL
abcg2


@<TRIPOS>ATOM
      1 N1          -0.3920    -1.5610    -0.0180 na         1 HQD      -0.777000
      2 C2          -1.6180    -0.9820    -0.0020 cc         1 HQD       0.102800
      3 C3          -1.7170     0.3780     0.0240 cd         1 HQD      -0.075100
      4 C4          -0.5610     1.2320     0.0350 c          1 HQD       0.563900
      5 C5           1.9270     1.2680     0.0270 ca         1 HQD      -0.012000
      6 C6           3.1350     0.6170     0.0110 ca         1 HQD      -0.167000
      7 C7           3.1700    -0.7880    -0.0150 ca         1 HQD      -0.040000
      8 C8           2.0090    -1.5190    -0.0240 ca         1 HQD      -0.186000
      9 C9           0.7700    -0.8550    -0.0090 ca         1 HQD       0.331000
     10 C10          0.7200     0.5480     0.0170 ca         1 HQD      -0.215600
     11 C           -2.8110    -1.8770    -0.0130 c3         1 HQD      -0.047900
     12 O3          -2.9370     0.9600     0.0380 oh         1 HQD      -0.531100
     13 O13         -0.6910     2.4650     0.0580 o          1 HQD      -0.592100
     14 HC1         -3.4400    -1.7020     0.8600 hc         1 HQD       0.055700
     15 HC2         -3.4250    -1.7010    -0.8970 hc         1 HQD       0.055700
     16 HC3         -2.5220    -2.9270    -0.0100 hc         1 HQD       0.055700
     17 H3          -2.7910     1.9170     0.0550 ho         1 HQD       0.486000
     18 H5           1.8890     2.3490     0.0460 ha         1 HQD       0.137000
     19 H6           4.0580     1.1790     0.0200 ha         1 HQD       0.121000
     20 H7           4.1220    -1.3020    -0.0260 ha         1 HQD       0.115000
     21 H8           2.0370    -2.6020    -0.0430 ha         1 HQD       0.115000
     22 H1N         -0.3400    -2.5690    -0.0360 hn         1 HQD       0.506000
@<TRIPOS>BOND
     1     1     2 1   
     2     1     9 1   
     3     1    22 1   
     4     2     3 2   
     5     2    11 1   
     6     3     4 1   
     7     3    12 1   
     8     4    10 1   
     9     4    13 2   
    10     5     6 ar  
    11     5    10 ar  
    12     5    18 1   
    13     6     7 ar  
    14     6    19 1   
    15     7     8 ar  
    16     7    20 1   
    17     8     9 ar  
    18     8    21 1   
    19     9    10 ar  
    20    11    14 1   
    21    11    15 1   
    22    11    16 1   
    23    12    17 1   
@<TRIPOS>SUBSTRUCTURE
     1 HQD         1 TEMP              0 ****  ****    0 ROOT
