@<TRIPOS>MOLECULE
HQD
   22    23     1     0     0
SMALL
No Charge or Current Charge


@<TRIPOS>ATOM
      1 N1          -0.3960    -1.5830    -0.0160 na         1 HQD      -0.777000
      2 C2          -1.6900    -1.0340    -0.0020 cc         1 HQD       0.102800
      3 C3          -1.7520     0.3530     0.0220 cd         1 HQD      -0.075100
      4 C4          -0.5620     1.2460     0.0330 c          1 HQD       0.563900
      5 C5           1.9570     1.3100     0.0270 ca         1 HQD      -0.012000
      6 C6           3.1860     0.6290     0.0110 ca         1 HQD      -0.167000
      7 C7           3.2080    -0.7740    -0.0130 ca         1 HQD      -0.040000
      8 C8           1.9990    -1.4900    -0.0210 ca         1 HQD      -0.186000
      9 C9           0.7670    -0.8160    -0.0060 ca         1 HQD       0.331000
     10 C10          0.7510     0.5780     0.0180 ca         1 HQD      -0.215600
     11 C           -2.8890    -1.9460    -0.0140 c3         1 HQD      -0.047900
     12 O3          -2.9400     1.0290     0.0370 oh         1 HQD      -0.531100
     13 O13         -0.6730     2.4700     0.0550 o          1 HQD      -0.592100
     14 HC1         -3.5070    -1.7850     0.8770 hc         1 HQD       0.055700
     15 HC2         -3.5120    -1.7540    -0.8950 hc         1 HQD       0.055700
     16 HC3         -2.5980    -3.0030    -0.0330 hc         1 HQD       0.055700
     17 H3          -2.7150     1.9910     0.0530 ho         1 HQD       0.486000
     18 H5           1.9460     2.3980     0.0450 ha         1 HQD       0.137000
     19 H6           4.1180     1.1890     0.0180 ha         1 HQD       0.121000
     20 H7           4.1580    -1.3050    -0.0250 ha         1 HQD       0.115000
     21 H8           2.0260    -2.5760    -0.0400 ha         1 HQD       0.115000
     22 H1N         -0.2900    -2.5960    -0.0330 hn         1 HQD       0.506000
@<TRIPOS>BOND
     1     1     2 1   
     2     1     9 1   
     3     1    22 1   
     4     2     3 2   
     5     2    11 1   
     6     3     4 1   
     7     3    12 1   
     8     4    10 1   
     9     4    13 2   
    10     5     6 ar  
    11     5    10 ar  
    12     5    18 1   
    13     6     7 ar  
    14     6    19 1   
    15     7     8 ar  
    16     7    20 1   
    17     8     9 ar  
    18     8    21 1   
    19     9    10 ar  
    20    11    14 1   
    21    11    15 1   
    22    11    16 1   
    23    12    17 1   
@<TRIPOS>SUBSTRUCTURE
     1 HQD         1 TEMP              0 ****  ****    0 ROOT
