@<TRIPOS>MOLECULE
HQE
   14    14     1     0     0
SMALL
No Charge or Current Charge


@<TRIPOS>ATOM
      1 C1           0.7000     1.3480     0.0170 ca         1 HQE      -0.135250
      2 C2          -0.7070     1.3530    -0.0100 ca         1 HQE      -0.135250
      3 C3          -1.4130     0.1440    -0.1250 ca         1 HQE       0.102100
      4 O3          -2.7760     0.1580    -0.1500 oh         1 HQE      -0.535100
      5 C4          -0.7130    -1.0730    -0.2140 ca         1 HQE      -0.135250
      6 C5           0.6950    -1.0780    -0.1870 ca         1 HQE      -0.135250
      7 C6           1.4000     0.1340    -0.0720 ca         1 HQE       0.102100
      8 O6           2.7640     0.1380    -0.0450 oh         1 HQE      -0.535100
      9 H1           1.2450     2.2840     0.1060 ha         1 HQE       0.121000
     10 H2          -1.2490     2.2930     0.0590 ha         1 HQE       0.121000
     11 H3          -3.0990    -0.7650    -0.2340 ho         1 HQE       0.461000
     12 H4          -1.2510    -2.0140    -0.3040 ha         1 HQE       0.121000
     13 H5           1.2290    -2.0230    -0.2570 ha         1 HQE       0.121000
     14 H6           3.0830    -0.7880    -0.1170 ho         1 HQE       0.461000
@<TRIPOS>BOND
     1     1     2 ar  
     2     1     7 ar  
     3     1     9 1   
     4     2     3 ar  
     5     2    10 1   
     6     3     4 1   
     7     3     5 ar  
     8     4    11 1   
     9     5     6 ar  
    10     5    12 1   
    11     6     7 ar  
    12     6    13 1   
    13     7     8 1   
    14     8    14 1   
@<TRIPOS>SUBSTRUCTURE
     1 HQE         1 TEMP              0 ****  ****    0 ROOT
