@<TRIPOS>MOLECULE
HQE
   14    14     1     0     0
SMALL
bcc


@<TRIPOS>ATOM
      1 C1           0.6880     1.3110     0.0140 ca         1 HQE      -0.153250
      2 C2          -0.6970     1.3160    -0.0110 ca         1 HQE      -0.153250
      3 C3          -1.4060     0.1230    -0.1220 ca         1 HQE       0.102100
      4 O3          -2.7590     0.1860    -0.1420 oh         1 HQE      -0.496100
      5 C4          -0.7030    -1.0730    -0.2080 ca         1 HQE      -0.153250
      6 C5           0.6860    -1.0780    -0.1830 ca         1 HQE      -0.153250
      7 C6           1.3930     0.1130    -0.0730 ca         1 HQE       0.102100
      8 O6           2.7470     0.1670    -0.0440 oh         1 HQE      -0.496100
      9 H1           1.2280     2.2460     0.1020 ha         1 HQE       0.139000
     10 H2          -1.2310     2.2550     0.0570 ha         1 HQE       0.139000
     11 H3          -3.1300    -0.6960    -0.2510 ho         1 HQE       0.422000
     12 H4          -1.2340    -2.0150    -0.2960 ha         1 HQE       0.139000
     13 H5           1.2120    -2.0230    -0.2540 ha         1 HQE       0.139000
     14 H6           3.1150    -0.7200    -0.1220 ho         1 HQE       0.422000
@<TRIPOS>BOND
     1     1     2 ar  
     2     1     7 ar  
     3     1     9 1   
     4     2     3 ar  
     5     2    10 1   
     6     3     4 1   
     7     3     5 ar  
     8     4    11 1   
     9     5     6 ar  
    10     5    12 1   
    11     6     7 ar  
    12     6    13 1   
    13     7     8 1   
    14     8    14 1   
@<TRIPOS>SUBSTRUCTURE
     1 HQE         1 TEMP              0 ****  ****    0 ROOT
