@<TRIPOS>MOLECULE
HQF
   28    30     1     0     0
SMALL
No Charge or Current Charge


@<TRIPOS>ATOM
      1 N01         18.7050    -2.2850    33.9370 nc         1 HQF      -0.677000
      2 C02         19.7240    -2.0960    33.0780 cd         1 HQF       0.370000
      3 N03         19.2880    -1.2270    32.0640 na         1 HQF      -0.156500
      4 C04         17.9730    -0.8850    32.3370 cd         1 HQF      -0.303000
      5 C05         17.6530    -1.5510    33.4830 cc         1 HQF       0.208900
      6 C06         20.0550    -0.7600    30.8930 c3         1 HQF       0.138900
      7 C07         20.1650    -1.7800    29.7600 ca         1 HQF      -0.059300
      8 C08         19.0870    -2.6340    29.4400 ca         1 HQF      -0.042000
      9 C09         19.2350    -3.5470    28.3850 ca         1 HQF      -0.172000
     10 C10         20.4010    -3.6400    27.6420 ca         1 HQF       0.123400
     11 C11         21.4760    -2.7910    27.9500 ca         1 HQF      -0.085000
     12 C12         21.3570    -1.8630    29.0040 ca         1 HQF      -0.083000
     13 N13         20.4320    -4.5850    26.6180 nc         1 HQF      -0.630100
     14 C14         19.2450    -5.1720    26.6430 cd         1 HQF       0.621100
     15 S15         18.0200    -4.6880    27.8400 ss         1 HQF      -0.057200
     16 N16         19.0520    -6.1410    25.7310 nv         1 HQF      -1.027200
     17 C17         21.1120    -2.7440    33.2310 c          1 HQF       0.636500
     18 O18         21.3260    -3.4930    34.1830 o          1 HQF      -0.697500
     19 O19         21.9960    -2.5000    32.4160 o          1 HQF      -0.697500
     20 H1          17.3810    -0.2230    31.7170 h4         1 HQF       0.126000
     21 H2          16.7140    -1.5490    34.0210 h4         1 HQF       0.007100
     22 H3          21.0560    -0.4550    31.2230 h1         1 HQF       0.065200
     23 H4          19.5660     0.1400    30.5000 h1         1 HQF       0.065200
     24 H5          18.1520    -2.5890    29.9940 ha         1 HQF       0.141000
     25 H6          22.3980    -2.8490    27.3760 ha         1 HQF       0.117000
     26 H7          22.1940    -1.2090    29.2350 ha         1 HQF       0.112000
     27 H8          19.8900    -6.4910    25.2810 hn         1 HQF       0.478000
     28 H9          18.3140    -6.8140    25.9050 hn         1 HQF       0.478000
@<TRIPOS>BOND
     1     1     2 2   
     2     1     5 1   
     3     2     3 1   
     4     2    17 1   
     5     3     4 1   
     6     3     6 1   
     7     4     5 2   
     8     4    20 1   
     9     5    21 1   
    10     6     7 1   
    11     6    22 1   
    12     6    23 1   
    13     7     8 ar  
    14     7    12 ar  
    15     8     9 ar  
    16     8    24 1   
    17     9    10 ar  
    18     9    15 1   
    19    10    11 ar  
    20    10    13 1   
    21    11    12 ar  
    22    11    25 1   
    23    12    26 1   
    24    13    14 2   
    25    14    15 1   
    26    14    16 1   
    27    16    27 1   
    28    16    28 1   
    29    17    18 1   
    30    17    19 1   
@<TRIPOS>SUBSTRUCTURE
     1 HQF         1 TEMP              0 ****  ****    0 ROOT
