@<TRIPOS>MOLECULE
HQF
   28    30     1     0     0
SMALL
abcg2


@<TRIPOS>ATOM
      1 N01         18.5780    -2.3240    33.8090 nc         1 HQF      -0.677000
      2 C02         19.6160    -2.1710    33.0130 cd         1 HQF       0.370000
      3 N03         19.3490    -1.2280    32.0620 na         1 HQF      -0.156500
      4 C04         18.0760    -0.7840    32.2760 cd         1 HQF      -0.303000
      5 C05         17.6200    -1.4720    33.3640 cc         1 HQF       0.208900
      6 C06         20.1630    -0.7940    30.9470 c3         1 HQF       0.138900
      7 C07         20.2250    -1.7900    29.8170 ca         1 HQF      -0.059300
      8 C08         19.2480    -2.7600    29.6400 ca         1 HQF      -0.042000
      9 C09         19.3540    -3.6160    28.5560 ca         1 HQF      -0.172000
     10 C10         20.4040    -3.5370    27.6300 ca         1 HQF       0.123400
     11 C11         21.3750    -2.5540    27.8140 ca         1 HQF      -0.085000
     12 C12         21.2760    -1.7010    28.8990 ca         1 HQF      -0.083000
     13 N13         20.3780    -4.4620    26.6140 nc         1 HQF      -0.630100
     14 C14         19.3500    -5.2370    26.7240 cd         1 HQF       0.621100
     15 S15         18.2920    -4.9180    28.0990 ss         1 HQF      -0.057200
     16 N16         19.0250    -6.2080    25.8540 nv         1 HQF      -1.027200
     17 C17         20.9220    -2.9280    33.1570 c          1 HQF       0.636500
     18 O18         20.9310    -3.8080    34.0300 o          1 HQF      -0.697500
     19 O19         21.8490    -2.5900    32.3980 o          1 HQF      -0.697500
     20 H1          17.6210    -0.0350    31.6490 h4         1 HQF       0.126000
     21 H2          16.6550    -1.3880    33.8430 h4         1 HQF       0.007100
     22 H3          21.1660    -0.5660    31.2960 h1         1 HQF       0.065200
     23 H4          19.7280     0.1390    30.5840 h1         1 HQF       0.065200
     24 H5          18.4200    -2.8540    30.3320 ha         1 HQF       0.141000
     25 H6          22.2000    -2.4710    27.1180 ha         1 HQF       0.117000
     26 H7          22.0390    -0.9450    29.0460 ha         1 HQF       0.112000
     27 H8          19.7330    -6.4870    25.1930 hn         1 HQF       0.478000
     28 H9          18.3770    -6.9290    26.1230 hn         1 HQF       0.478000
@<TRIPOS>BOND
     1     1     2 2   
     2     1     5 1   
     3     2     3 1   
     4     2    17 1   
     5     3     4 1   
     6     3     6 1   
     7     4     5 2   
     8     4    20 1   
     9     5    21 1   
    10     6     7 1   
    11     6    22 1   
    12     6    23 1   
    13     7     8 ar  
    14     7    12 ar  
    15     8     9 ar  
    16     8    24 1   
    17     9    10 ar  
    18     9    15 1   
    19    10    11 ar  
    20    10    13 1   
    21    11    12 ar  
    22    11    25 1   
    23    12    26 1   
    24    13    14 2   
    25    14    15 1   
    26    14    16 1   
    27    16    27 1   
    28    16    28 1   
    29    17    18 1   
    30    17    19 1   
@<TRIPOS>SUBSTRUCTURE
     1 HQF         1 TEMP              0 ****  ****    0 ROOT
