@<TRIPOS>MOLECULE
HQI
   25    26     1     0     0
SMALL
No Charge or Current Charge


@<TRIPOS>ATOM
      1 N1          -2.0280    -0.4550    -0.1450 ns         1 HQI      -0.177000
      2 N2           2.8690    -0.4860     0.1220 nb         1 HQI      -0.688000
      3 CAA         -4.3770    -1.1370    -0.1740 c3         1 HQI      -0.181100
      4 OAB         -3.6610     1.0670     0.4680 o          1 HQI      -0.580100
      5 CAD          1.6650    -2.5810     0.0930 ca         1 HQI      -0.158000
      6 CAE          2.8520    -1.8380     0.1420 ca         1 HQI       0.354900
      7 CAF          0.4990     2.3240    -0.0490 ca         1 HQI      -0.162000
      8 CAG         -0.7310     1.6540    -0.1040 ca         1 HQI      -0.044000
      9 CAH          0.4360    -1.9080     0.0200 ca         1 HQI      -0.060000
     10 CAK         -3.3370    -0.0500     0.0820 c          1 HQI       0.602100
     11 CAL          1.6910     1.5960     0.0300 ca         1 HQI       0.177100
     12 CAM         -0.7840     0.2420    -0.0750 ca         1 HQI      -0.081000
     13 CAN          0.4310    -0.4930    -0.0050 ca         1 HQI      -0.039000
     14 CAO          1.6830     0.1820     0.0500 ca         1 HQI       0.193000
     15 HN1         -1.9420    -1.4230    -0.4270 hn         1 HQI       0.154000
     16 HAA         -4.1240    -2.0210     0.4230 hc         1 HQI       0.061033
     17 HAAA        -5.4010    -0.7980     0.0210 hc         1 HQI       0.061033
     18 HAAB        -4.2610    -1.5080    -1.1980 hc         1 HQI       0.061033
     19 HOAC         3.5650     1.5440     0.1280 ho         1 HQI       0.498000
     20 HAD          1.7040    -3.6660     0.1140 ha         1 HQI       0.125000
     21 HAE          3.8190    -2.3370     0.2000 h4         1 HQI       0.022100
     22 HAF          0.5280     3.4100    -0.0720 ha         1 HQI       0.136000
     23 HAG         -1.6350     2.2510    -0.1870 ha         1 HQI       0.125000
     24 HAH         -0.4810    -2.4890    -0.0130 ha         1 HQI       0.121000
     25 OAC          2.8860     2.2580     0.0820 oh         1 HQI      -0.522100
@<TRIPOS>BOND
     1     1    10 1   
     2     1    12 1   
     3     1    15 1   
     4     2     6 ar  
     5     2    14 ar  
     6     3    10 1   
     7     3    16 1   
     8     3    17 1   
     9     3    18 1   
    10     4    10 2   
    11     5     6 ar  
    12     5     9 ar  
    13     5    20 1   
    14     6    21 1   
    15     7     8 ar  
    16     7    11 ar  
    17     7    22 1   
    18     8    12 ar  
    19     8    23 1   
    20     9    13 ar  
    21     9    24 1   
    22    11    14 ar  
    23    11    25 1   
    24    12    13 ar  
    25    13    14 ar  
    26    19    25 1   
@<TRIPOS>SUBSTRUCTURE
     1 HQI         1 TEMP              0 ****  ****    0 ROOT
