@<TRIPOS>MOLECULE
HQI
   25    26     1     0     0
SMALL
bcc


@<TRIPOS>ATOM
      1 N1          -2.0510    -0.3440    -0.5990 ns         1 HQI      -0.503100
      2 N2           2.7350    -0.4510     0.3390 nb         1 HQI      -0.688000
      3 CAA         -4.2360    -1.1900    -0.0320 c3         1 HQI      -0.181100
      4 OAB         -2.8840     0.1260     1.4460 o          1 HQI      -0.580100
      5 CAD          1.5340    -2.5130     0.2880 ca         1 HQI      -0.241300
      6 CAE          2.7110    -1.7530     0.4430 ca         1 HQI       0.420200
      7 CAF          0.5210     2.3320    -0.2940 ca         1 HQI      -0.180000
      8 CAG         -0.7040     1.6660    -0.4840 ca         1 HQI      -0.062000
      9 CAH          0.3580    -1.8720     0.0110 ca         1 HQI      -0.078000
     10 CAK         -3.0120    -0.4000     0.3540 c          1 HQI       0.669100
     11 CAL          1.6570     1.6120    -0.0250 ca         1 HQI       0.111800
     12 CAM         -0.8100     0.3030    -0.4000 ca         1 HQI       0.011600
     13 CAN          0.3460    -0.4650    -0.1120 ca         1 HQI      -0.104300
     14 CAO          1.5820     0.1940     0.0680 ca         1 HQI       0.323600
     15 HN1         -2.2140    -0.8110    -1.4780 hn         1 HQI       0.320500
     16 HAA         -4.1330    -2.2120     0.3380 hc         1 HQI       0.061033
     17 HAAA        -5.1200    -0.7580     0.4300 hc         1 HQI       0.061033
     18 HAAB        -4.3860    -1.2400    -1.1100 hc         1 HQI       0.061033
     19 HOAC         3.4930     1.5150     0.3310 ho         1 HQI       0.459000
     20 HAD          1.5730    -3.5880     0.3880 ha         1 HQI       0.143000
     21 HAE          3.6500    -2.2490     0.6610 h4         1 HQI       0.022100
     22 HAF          0.5630     3.4100    -0.3670 ha         1 HQI       0.154000
     23 HAG         -1.5860     2.2530    -0.7080 ha         1 HQI       0.143000
     24 HAH         -0.5580    -2.4350    -0.1140 ha         1 HQI       0.139000
     25 OAC          2.8380     2.2110     0.1520 oh         1 HQI      -0.483100
@<TRIPOS>BOND
     1     1    10 1   
     2     1    12 1   
     3     1    15 1   
     4     2     6 ar  
     5     2    14 ar  
     6     3    10 1   
     7     3    16 1   
     8     3    17 1   
     9     3    18 1   
    10     4    10 2   
    11     5     6 ar  
    12     5     9 ar  
    13     5    20 1   
    14     6    21 1   
    15     7     8 ar  
    16     7    11 ar  
    17     7    22 1   
    18     8    12 ar  
    19     8    23 1   
    20     9    13 ar  
    21     9    24 1   
    22    11    14 ar  
    23    11    25 1   
    24    12    13 ar  
    25    13    14 ar  
    26    19    25 1   
@<TRIPOS>SUBSTRUCTURE
     1 HQI         1 TEMP              0 ****  ****    0 ROOT
