@<TRIPOS>MOLECULE
HQJ
   19    20     1     0     0
SMALL
bcc


@<TRIPOS>ATOM
      1 CAB         -1.9820     0.0780     0.0060 ca         1 HQJ       0.025400
      2 CAC         -0.6600     0.4900     0.0060 ca         1 HQJ      -0.095000
      3 CAD          0.3610    -0.4610     0.0090 ca         1 HQJ      -0.090500
      4 CAE          0.0170    -1.8150     0.0130 ca         1 HQJ      -0.127000
      5 CAF         -1.3120    -2.2060     0.0130 ca         1 HQJ      -0.124000
      6 CAG         -2.3310    -1.2630     0.0090 ca         1 HQJ      -0.123000
      7 CAH          1.7560    -0.0290     0.0090 cc         1 HQJ       0.354800
      8 CAI          2.8920    -0.8010     0.0180 cd         1 HQJ      -0.243600
      9 CAK          3.4090     1.3230    -0.0010 cd         1 HQJ       0.393400
     10 NAJ          3.9270     0.0790     0.0120 na         1 HQJ      -0.297900
     11 NAL          2.1030     1.2960    -0.0020 nc         1 HQJ      -0.667000
     12 CL          -3.2350     1.2800     0.0010 cl         1 HQJ      -0.118400
     13 H1          -0.4160     1.5430     0.0030 ha         1 HQJ       0.168000
     14 H2           0.7890    -2.5740     0.0150 ha         1 HQJ       0.127000
     15 H3          -1.5610    -3.2590     0.0150 ha         1 HQJ       0.133000
     16 H4          -3.3690    -1.5670     0.0080 ha         1 HQJ       0.146000
     17 H5           3.0460    -1.8670     0.0280 h4         1 HQJ       0.177000
     18 H6           4.0260     2.2080    -0.0080 h5         1 HQJ       0.058100
     19 H7           4.9070    -0.1580     0.0150 hn         1 HQJ       0.303700
@<TRIPOS>BOND
     1     1     2 ar  
     2     1     6 ar  
     3     1    12 1   
     4     2     3 ar  
     5     2    13 1   
     6     3     4 ar  
     7     3     7 1   
     8     4     5 ar  
     9     4    14 1   
    10     5     6 ar  
    11     5    15 1   
    12     6    16 1   
    13     7     8 2   
    14     7    11 1   
    15     8    10 1   
    16     8    17 1   
    17     9    10 1   
    18     9    11 2   
    19     9    18 1   
    20    10    19 1   
@<TRIPOS>SUBSTRUCTURE
     1 HQJ         1 TEMP              0 ****  ****    0 ROOT
