@<TRIPOS>MOLECULE
HQJ
   19    20     1     0     0
SMALL
No Charge or Current Charge


@<TRIPOS>ATOM
      1 CAB         -2.0240     0.0810     0.0550 ca         1 HQJ       0.117000
      2 CAC         -0.6870     0.5090     0.0520 ca         1 HQJ      -0.077000
      3 CAD          0.3730    -0.4270     0.0070 ca         1 HQJ      -0.090500
      4 CAE          0.0510    -1.8040    -0.0550 ca         1 HQJ      -0.109000
      5 CAF         -1.2890    -2.2300    -0.0530 ca         1 HQJ      -0.106000
      6 CAG         -2.3290    -1.2870     0.0040 ca         1 HQJ      -0.105000
      7 CAH          1.7680     0.0450    -0.0120 cc         1 HQJ       0.289500
      8 CAI          2.8370    -0.7980     0.1290 cd         1 HQJ      -0.211000
      9 CAK          3.4760     1.3380    -0.1040 cd         1 HQJ       0.393400
     10 NAJ          3.9390     0.0440     0.0660 na         1 HQJ      -0.297500
     11 NAL          2.1490     1.3480    -0.1490 nc         1 HQJ      -0.667000
     12 Cl          -3.3240     1.2650     0.1190 cl         1 HQJ      -0.210000
     13 H1          -0.4770     1.5750     0.0900 ha         1 HQJ       0.150000
     14 H2           0.8320    -2.5570    -0.1100 ha         1 HQJ       0.109000
     15 H3          -1.5220    -3.2920    -0.0980 ha         1 HQJ       0.115000
     16 H4          -3.3650    -1.6150     0.0050 ha         1 HQJ       0.128000
     17 H5           2.9020    -1.8710     0.2690 h4         1 HQJ       0.159000
     18 H6           4.1410     2.1910    -0.1800 h5         1 HQJ       0.058100
     19 H7           4.9160    -0.2190     0.1330 hn         1 HQJ       0.354000
@<TRIPOS>BOND
     1     1     2 ar  
     2     1     6 ar  
     3     1    12 1   
     4     2     3 ar  
     5     2    13 1   
     6     3     4 ar  
     7     3     7 1   
     8     4     5 ar  
     9     4    14 1   
    10     5     6 ar  
    11     5    15 1   
    12     6    16 1   
    13     7     8 2   
    14     7    11 1   
    15     8    10 1   
    16     8    17 1   
    17     9    10 1   
    18     9    11 2   
    19     9    18 1   
    20    10    19 1   
@<TRIPOS>SUBSTRUCTURE
     1 HQJ         1 TEMP              0 ****  ****    0 ROOT
