@<TRIPOS>MOLECULE
HQK
   49    50     1     0     0
SMALL
No Charge or Current Charge


@<TRIPOS>ATOM
      1 C1         -65.6080     9.3970   297.7290 c3         1 HQK      -0.001700
      2 C2         -66.5900    10.3690   298.4430 c3         1 HQK      -0.083433
      3 C3         -65.1330     8.3480   298.7700 c3         1 HQK      -0.083433
      4 N          -60.1110     9.0950   299.7750 n          1 HQK      -0.121800
      5 C          -66.3880     8.6820   296.5920 c3         1 HQK      -0.083433
      6 C10        -60.7480    12.0000   295.5600 c3         1 HQK       0.084900
      7 C11        -59.8200    11.2650   298.0950 cc         1 HQK      -0.028000
      8 C12        -60.3230    11.5090   299.3530 cd         1 HQK      -0.019200
      9 C13        -60.5020    10.3780   300.3020 c          1 HQK       0.549200
     10 C14        -59.4900     9.9270   297.7110 cc         1 HQK       0.347500
     11 C16        -61.7620     7.5950   300.9750 c3         1 HQK      -0.098767
     12 C17        -59.3980     7.9490   301.9260 c3         1 HQK      -0.098767
     13 C18        -59.7780     6.5480   299.9130 c3         1 HQK      -0.098767
     14 C4         -64.3670    10.1160   297.1330 ca         1 HQK      -0.053300
     15 C5         -64.1450    11.5080   297.2760 ca         1 HQK      -0.106500
     16 C6         -62.9940    12.1140   296.7440 ca         1 HQK      -0.097000
     17 C7         -62.0350    11.3510   296.0580 ca         1 HQK      -0.101300
     18 C8         -62.2510     9.9730   295.8930 ca         1 HQK      -0.097000
     19 C9         -63.3990     9.3640   296.4260 ca         1 HQK      -0.106500
     20 N1         -59.5990     8.8470   298.4800 nd         1 HQK      -0.416300
     21 S          -59.7730    12.6460   296.9940 ss         1 HQK      -0.231600
     22 Cl         -60.8130    13.0910   299.9200 cl         1 HQK      -0.124000
     23 H1         -66.1040    10.8750   299.2860 hc         1 HQK       0.036256
     24 H2         -66.9680    11.1290   297.7490 hc         1 HQK       0.036256
     25 H3         -67.4560     9.8260   298.8410 hc         1 HQK       0.036256
     26 H4         -64.5570     8.8310   299.5690 hc         1 HQK       0.036256
     27 H5         -65.9870     7.8360   299.2300 hc         1 HQK       0.036256
     28 H6         -64.4960     7.5830   298.3110 hc         1 HQK       0.036256
     29 H7         -67.2920     8.1990   296.9810 hc         1 HQK       0.036256
     30 H8         -66.6920     9.4010   295.8220 hc         1 HQK       0.036256
     31 H9         -65.7830     7.9060   296.1100 hc         1 HQK       0.036256
     32 H10        -60.1400    11.2690   295.0130 h1         1 HQK       0.080700
     33 H11        -60.9820    12.8290   294.8800 h1         1 HQK       0.080700
     34 H12        -59.1200     9.7070   296.7190 h4         1 HQK       0.048800
     35 H13        -61.8870     6.6490   301.5170 hc         1 HQK       0.049589
     36 H14        -62.1860     8.3820   301.6060 hc         1 HQK       0.049589
     37 H15        -62.3580     7.5390   300.0570 hc         1 HQK       0.049589
     38 H16        -59.4140     7.0040   302.4840 hc         1 HQK       0.049589
     39 H17        -58.3550     8.1740   301.6740 hc         1 HQK       0.049589
     40 H18        -59.7550     8.7240   302.6110 hc         1 HQK       0.049589
     41 H19        -59.8970     5.6690   300.5570 hc         1 HQK       0.049589
     42 H20        -60.3540     6.3580   298.9990 hc         1 HQK       0.049589
     43 H21        -58.7150     6.6130   299.6460 hc         1 HQK       0.049589
     44 H22        -64.8460    12.1440   297.8070 ha         1 HQK       0.115500
     45 H23        -62.8380    13.1820   296.8870 ha         1 HQK       0.115500
     46 H24        -61.5190     9.3620   295.3680 ha         1 HQK       0.115500
     47 H25        -63.5230     8.2930   296.2940 ha         1 HQK       0.115500
     48 C15        -60.2650     7.8500   300.6370 c3         1 HQK       0.151400
     49 O          -60.9500    10.5480   301.4310 o          1 HQK      -0.526000
@<TRIPOS>BOND
     1     1     2 1   
     2     1     3 1   
     3     1     5 1   
     4     1    14 1   
     5     2    23 1   
     6     2    24 1   
     7     2    25 1   
     8     3    26 1   
     9     3    27 1   
    10     3    28 1   
    11     4     9 1   
    12     4    20 1   
    13     4    48 1   
    14     5    29 1   
    15     5    30 1   
    16     5    31 1   
    17     6    17 1   
    18     6    21 1   
    19     6    32 1   
    20     6    33 1   
    21     7     8 2   
    22     7    10 1   
    23     7    21 1   
    24     8     9 1   
    25     8    22 1   
    26     9    49 2   
    27    10    20 2   
    28    10    34 1   
    29    11    35 1   
    30    11    36 1   
    31    11    37 1   
    32    11    48 1   
    33    12    38 1   
    34    12    39 1   
    35    12    40 1   
    36    12    48 1   
    37    13    41 1   
    38    13    42 1   
    39    13    43 1   
    40    13    48 1   
    41    14    15 ar  
    42    14    19 ar  
    43    15    16 ar  
    44    15    44 1   
    45    16    17 ar  
    46    16    45 1   
    47    17    18 ar  
    48    18    19 ar  
    49    18    46 1   
    50    19    47 1   
@<TRIPOS>SUBSTRUCTURE
     1 HQK         1 TEMP              0 ****  ****    0 ROOT
