@<TRIPOS>MOLECULE
HQK
   49    50     1     0     0
SMALL
bcc


@<TRIPOS>ATOM
      1 C1         -66.2430     9.4330   296.9220 c3         1 HQK      -0.001700
      2 C2         -67.2320    10.3770   297.6040 c3         1 HQK      -0.083433
      3 C3         -66.0570     8.2020   297.8220 c3         1 HQK      -0.083433
      4 N          -59.6620     9.1070   300.3120 n          1 HQK      -0.188800
      5 C          -66.8390     8.9960   295.5780 c3         1 HQK      -0.083433
      6 C10        -60.9610    11.7950   296.0160 c3         1 HQK       0.037000
      7 C11        -59.9900    11.2170   298.5810 cc         1 HQK      -0.028000
      8 C12        -59.7070    11.4450   299.8900 cd         1 HQK      -0.094800
      9 C13        -59.5230    10.3770   300.8500 c          1 HQK       0.691700
     10 C14        -60.0660     9.8460   298.2020 cc         1 HQK       0.347500
     11 C16        -60.6010     7.9010   302.2610 c3         1 HQK      -0.098767
     12 C17        -58.1140     7.8350   301.7750 c3         1 HQK      -0.098767
     13 C18        -59.7270     6.6340   300.3240 c3         1 HQK      -0.098767
     14 C4         -64.8840    10.0840   296.6890 ca         1 HQK      -0.053300
     15 C5         -64.5800    11.3800   297.1040 ca         1 HQK      -0.124500
     16 C6         -63.3240    11.9330   296.8990 ca         1 HQK      -0.115000
     17 C7         -62.3210    11.2090   296.2670 ca         1 HQK      -0.101300
     18 C8         -62.6160     9.9180   295.8400 ca         1 HQK      -0.115000
     19 C9         -63.8710     9.3690   296.0480 ca         1 HQK      -0.124500
     20 N1         -59.9080     8.8790   299.0380 nd         1 HQK      -0.416300
     21 S          -60.1860    12.5500   297.4790 ss         1 HQK      -0.183700
     22 CL         -59.5570    13.0360   300.5040 cl         1 HQK      -0.048400
     23 H1         -66.8850    10.6950   298.5880 hc         1 HQK       0.036256
     24 H2         -67.4310    11.2700   297.0090 hc         1 HQK       0.036256
     25 H3         -68.1840     9.8610   297.7460 hc         1 HQK       0.036256
     26 H4         -65.6230     8.4810   298.7840 hc         1 HQK       0.036256
     27 H5         -67.0210     7.7250   298.0160 hc         1 HQK       0.036256
     28 H6         -65.4060     7.4560   297.3650 hc         1 HQK       0.036256
     29 H7         -67.8190     8.5380   295.7300 hc         1 HQK       0.036256
     30 H8         -66.9710     9.8480   294.9080 hc         1 HQK       0.036256
     31 H9         -66.2100     8.2660   295.0690 hc         1 HQK       0.036256
     32 H10        -60.2860    11.0710   295.5600 h1         1 HQK       0.080700
     33 H11        -61.0190    12.6400   295.3260 h1         1 HQK       0.080700
     34 H12        -60.2500     9.5470   297.1820 h4         1 HQK       0.048800
     35 H13        -60.5360     6.9770   302.8360 hc         1 HQK       0.049589
     36 H14        -60.4930     8.7310   302.9520 hc         1 HQK       0.049589
     37 H15        -61.5960     7.9430   301.8140 hc         1 HQK       0.049589
     38 H16        -57.9890     6.8870   302.3000 hc         1 HQK       0.049589
     39 H17        -57.3590     7.8820   300.9890 hc         1 HQK       0.049589
     40 H18        -57.9290     8.6350   302.4860 hc         1 HQK       0.049589
     41 H19        -59.6420     5.7730   300.9870 hc         1 HQK       0.049589
     42 H20        -60.7140     6.5990   299.8650 hc         1 HQK       0.049589
     43 H21        -58.9780     6.5300   299.5410 hc         1 HQK       0.049589
     44 H22        -65.3250    11.9830   297.6050 ha         1 HQK       0.133500
     45 H23        -63.1260    12.9400   297.2460 ha         1 HQK       0.133500
     46 H24        -61.8560     9.3290   295.3380 ha         1 HQK       0.133500
     47 H25        -64.0510     8.3580   295.7020 ha         1 HQK       0.133500
     48 C15        -59.5220     7.8850   301.1770 c3         1 HQK       0.151400
     49 O          -59.2750    10.5830   302.0270 o          1 HQK      -0.601500
@<TRIPOS>BOND
     1     1     2 1   
     2     1     3 1   
     3     1     5 1   
     4     1    14 1   
     5     2    23 1   
     6     2    24 1   
     7     2    25 1   
     8     3    26 1   
     9     3    27 1   
    10     3    28 1   
    11     4     9 1   
    12     4    20 1   
    13     4    48 1   
    14     5    29 1   
    15     5    30 1   
    16     5    31 1   
    17     6    17 1   
    18     6    21 1   
    19     6    32 1   
    20     6    33 1   
    21     7     8 2   
    22     7    10 1   
    23     7    21 1   
    24     8     9 1   
    25     8    22 1   
    26     9    49 2   
    27    10    20 2   
    28    10    34 1   
    29    11    35 1   
    30    11    36 1   
    31    11    37 1   
    32    11    48 1   
    33    12    38 1   
    34    12    39 1   
    35    12    40 1   
    36    12    48 1   
    37    13    41 1   
    38    13    42 1   
    39    13    43 1   
    40    13    48 1   
    41    14    15 ar  
    42    14    19 ar  
    43    15    16 ar  
    44    15    44 1   
    45    16    17 ar  
    46    16    45 1   
    47    17    18 ar  
    48    18    19 ar  
    49    18    46 1   
    50    19    47 1   
@<TRIPOS>SUBSTRUCTURE
     1 HQK         1 TEMP              0 ****  ****    0 ROOT
