@<TRIPOS>MOLECULE
HQL
   55    58     1     0     0
SMALL
bcc


@<TRIPOS>ATOM
      1 C1           5.8200     2.0570    -0.6470 ca         1 HQL      -0.124000
      2 C2           5.2520     1.7630    -1.8790 ca         1 HQL      -0.132250
      3 C3           4.2730     0.7840    -1.9780 ca         1 HQL      -0.110000
      4 C4           3.8500     0.0850    -0.8520 ca         1 HQL      -0.097300
      5 C5           2.8230    -1.0140    -1.0040 c3         1 HQL       0.245700
      6 O1           2.0690    -1.0840     0.1760 os         1 HQL      -0.404600
      7 C6           0.9380    -1.9370     0.1250 c6         1 HQL       0.148100
      8 C7           0.5250    -2.2460     1.5530 c6         1 HQL      -0.091400
      9 C8          -0.7320    -3.1040     1.5690 c6         1 HQL       0.178800
     10 N1          -1.8080    -2.4650     0.8420 n3         1 HQL      -0.735600
     11 C9          -3.0760    -3.1430     0.9930 c3         1 HQL       0.177800
     12 C10         -3.6950    -2.9190     2.3700 c3         1 HQL      -0.075400
     13 C11         -3.6900    -1.4470     2.7880 c3         1 HQL      -0.104700
     14 C12         -4.3340    -0.5590     1.7890 cc         1 HQL       0.409800
     15 N2          -5.5950    -0.6570     1.3610 na         1 HQL      -0.175400
     16 N3          -5.8320     0.2900     0.4690 nc         1 HQL      -0.211800
     17 N4          -4.7480     0.9490     0.3550 nd         1 HQL      -0.048000
     18 N5          -3.7980     0.4560     1.1510 nd         1 HQL      -0.378000
     19 C13         -1.4490    -2.2230    -0.5390 c6         1 HQL       0.178800
     20 C14         -0.2330    -1.3120    -0.6240 c6         1 HQL      -0.091400
     21 C15          3.5150    -2.3260    -1.3250 ca         1 HQL      -0.097300
     22 C16          3.5470    -2.7950    -2.6320 ca         1 HQL      -0.110000
     23 C17          4.2080    -3.9760    -2.9480 ca         1 HQL      -0.132250
     24 C18          4.8350    -4.7070    -1.9490 ca         1 HQL      -0.124000
     25 C19          4.7970    -4.2500    -0.6360 ca         1 HQL      -0.132250
     26 C20          4.1430    -3.0670    -0.3260 ca         1 HQL      -0.110000
     27 C21          4.4200     0.3860     0.3830 ca         1 HQL      -0.110000
     28 C22          5.3990     1.3660     0.4820 ca         1 HQL      -0.132250
     29 H1           6.5820     2.8210    -0.5670 ha         1 HQL       0.129000
     30 H2           5.5640     2.3020    -2.7640 ha         1 HQL       0.129250
     31 H3           3.8310     0.5660    -2.9430 ha         1 HQL       0.133250
     32 H5           2.1860    -0.7590    -1.8630 h1         1 HQL       0.043700
     33 H6           1.2040    -2.8840    -0.3690 h1         1 HQL       0.037700
     34 H71          0.3300    -1.3120     2.0880 hc         1 HQL       0.060450
     35 H72          1.3310    -2.7670     2.0760 hc         1 HQL       0.060450
     36 H81         -0.5030    -4.1020     1.1510 h1         1 HQL       0.029950
     37 H82         -1.0400    -3.2670     2.6040 h1         1 HQL       0.029950
     38 H91         -3.7570    -2.7490     0.2340 h1         1 HQL       0.032700
     39 H92         -3.0030    -4.2250     0.7980 h1         1 HQL       0.032700
     40 H101        -4.7160    -3.3100     2.3610 hc         1 HQL       0.042700
     41 H102        -3.1670    -3.4870     3.1380 hc         1 HQL       0.042700
     42 H111        -4.2010    -1.3360     3.7470 hc         1 HQL       0.078200
     43 H112        -2.6680    -1.0980     2.9200 hc         1 HQL       0.078200
     44 H131        -2.2930    -1.7450    -1.0410 h1         1 HQL       0.029950
     45 H132        -1.2440    -3.1620    -1.0840 h1         1 HQL       0.029950
     46 H141         0.0110    -1.1400    -1.6760 hc         1 HQL       0.060450
     47 H142        -0.4780    -0.3450    -0.1760 hc         1 HQL       0.060450
     48 H16          3.0440    -2.2360    -3.4140 ha         1 HQL       0.133250
     49 H17          4.2250    -4.3270    -3.9710 ha         1 HQL       0.129250
     50 H18          5.3460    -5.6300    -2.1890 ha         1 HQL       0.129000
     51 H19          5.2790    -4.8180     0.1490 ha         1 HQL       0.129250
     52 H20          4.1170    -2.7250     0.7020 ha         1 HQL       0.133250
     53 H21          4.1030    -0.1380     1.2740 ha         1 HQL       0.133250
     54 H22          5.8340     1.5900     1.4480 ha         1 HQL       0.129250
     55 HN1         -6.3210    -1.3080     1.6270 hn         1 HQL       0.330700
@<TRIPOS>BOND
     1     1     2 ar  
     2     1    28 ar  
     3     1    29 1   
     4     2     3 ar  
     5     2    30 1   
     6     3     4 ar  
     7     3    31 1   
     8     4     5 1   
     9     4    27 ar  
    10     5     6 1   
    11     5    21 1   
    12     5    32 1   
    13     6     7 1   
    14     7     8 1   
    15     7    20 1   
    16     7    33 1   
    17     8     9 1   
    18     8    34 1   
    19     8    35 1   
    20     9    10 1   
    21     9    36 1   
    22     9    37 1   
    23    10    11 1   
    24    10    19 1   
    25    11    12 1   
    26    11    38 1   
    27    11    39 1   
    28    12    13 1   
    29    12    40 1   
    30    12    41 1   
    31    13    14 1   
    32    13    42 1   
    33    13    43 1   
    34    14    15 1   
    35    14    18 2   
    36    15    16 1   
    37    15    55 1   
    38    16    17 2   
    39    17    18 1   
    40    19    20 1   
    41    19    44 1   
    42    19    45 1   
    43    20    46 1   
    44    20    47 1   
    45    21    22 ar  
    46    21    26 ar  
    47    22    23 ar  
    48    22    48 1   
    49    23    24 ar  
    50    23    49 1   
    51    24    25 ar  
    52    24    50 1   
    53    25    26 ar  
    54    25    51 1   
    55    26    52 1   
    56    27    28 ar  
    57    27    53 1   
    58    28    54 1   
@<TRIPOS>SUBSTRUCTURE
     1 HQL         1 TEMP              0 ****  ****    0 ROOT
