@<TRIPOS>MOLECULE
HQL
   55    58     1     0     0
SMALL
No Charge or Current Charge


@<TRIPOS>ATOM
      1 C1           6.2010     2.0280    -0.5890 ca         1 HQL      -0.106000
      2 C2           5.5600     1.8440    -1.8250 ca         1 HQL      -0.114250
      3 C3           4.5260     0.9000    -1.9480 ca         1 HQL      -0.092000
      4 C4           4.1200     0.1320    -0.8370 ca         1 HQL      -0.097300
      5 C5           2.9980    -0.8970    -1.0040 c3         1 HQL       0.268900
      6 O1           2.2510    -1.0020     0.2290 os         1 HQL      -0.451000
      7 C6           1.1040    -1.8840     0.2720 c6         1 HQL       0.171300
      8 C7           0.5570    -1.9280     1.7130 c6         1 HQL      -0.091400
      9 C8          -0.7050    -2.8130     1.8020 c6         1 HQL       0.178800
     10 N1          -1.7630    -2.3460     0.8610 n3         1 HQL      -0.735600
     11 C9          -3.0400    -3.0920     0.9850 c3         1 HQL       0.177800
     12 C10         -3.7630    -2.9340     2.3460 c3         1 HQL      -0.075400
     13 C11         -4.0270    -1.4630     2.7610 c3         1 HQL      -0.104700
     14 C12         -4.8390    -0.6770     1.7670 cc         1 HQL       0.409800
     15 N2          -6.0910    -0.9890     1.3250 na         1 HQL      -0.225700
     16 N3          -6.5320    -0.0530     0.4480 nc         1 HQL      -0.211800
     17 N4          -5.5540     0.8090     0.3760 nd         1 HQL      -0.048000
     18 N5          -4.4990     0.4540     1.1850 nd         1 HQL      -0.378000
     19 C13         -1.2660    -2.3320    -0.5410 c6         1 HQL       0.178800
     20 C14         -0.0170    -1.4370    -0.6980 c6         1 HQL      -0.091400
     21 C15          3.5480    -2.2690    -1.4060 ca         1 HQL      -0.097300
     22 C16          3.2790    -2.7880    -2.6890 ca         1 HQL      -0.092000
     23 C17          3.7750    -4.0480    -3.0640 ca         1 HQL      -0.114250
     24 C18          4.5440    -4.8000    -2.1610 ca         1 HQL      -0.106000
     25 C19          4.8170    -4.2900    -0.8810 ca         1 HQL      -0.114250
     26 C20          4.3220    -3.0300    -0.5040 ca         1 HQL      -0.092000
     27 C21          4.7730     0.3210     0.4010 ca         1 HQL      -0.092000
     28 C22          5.8070     1.2660     0.5230 ca         1 HQL      -0.114250
     29 H1           7.0010     2.7590    -0.4930 ha         1 HQL       0.111000
     30 H2           5.8650     2.4320    -2.6880 ha         1 HQL       0.111250
     31 H3           4.0400     0.7630    -2.9120 ha         1 HQL       0.115250
     32 H5           2.3400    -0.5330    -1.8030 h1         1 HQL       0.043700
     33 H6           1.4260    -2.9000    -0.0010 h1         1 HQL       0.037700
     34 H71          0.3150    -0.9120     2.0520 hc         1 HQL       0.060450
     35 H72          1.3270    -2.3150     2.3930 hc         1 HQL       0.060450
     36 H81         -0.4320    -3.8550     1.5810 h1         1 HQL       0.029950
     37 H82         -1.0640    -2.7850     2.8400 h1         1 HQL       0.029950
     38 H91         -3.7330    -2.7510     0.2030 h1         1 HQL       0.032700
     39 H92         -2.8660    -4.1620     0.8050 h1         1 HQL       0.032700
     40 H101        -4.7190    -3.4690     2.2930 hc         1 HQL       0.042700
     41 H102        -3.1850    -3.4320     3.1320 hc         1 HQL       0.042700
     42 H111        -4.5420    -1.4540     3.7290 hc         1 HQL       0.078200
     43 H112        -3.0660    -0.9590     2.9240 hc         1 HQL       0.078200
     44 H131        -2.0490    -1.9590    -1.2170 h1         1 HQL       0.029950
     45 H132        -1.0190    -3.3540    -0.8650 h1         1 HQL       0.029950
     46 H141         0.3250    -1.4940    -1.7390 hc         1 HQL       0.060450
     47 H142        -0.2870    -0.3900    -0.5040 hc         1 HQL       0.060450
     48 H16          2.6840    -2.2150    -3.3970 ha         1 HQL       0.115250
     49 H17          3.5620    -4.4420    -4.0560 ha         1 HQL       0.111250
     50 H18          4.9280    -5.7760    -2.4520 ha         1 HQL       0.111000
     51 H19          5.4120    -4.8710    -0.1790 ha         1 HQL       0.111250
     52 H20          4.5350    -2.6460     0.4900 ha         1 HQL       0.115250
     53 H21          4.4810    -0.2620     1.2710 ha         1 HQL       0.115250
     54 H22          6.3030     1.4060     1.4810 ha         1 HQL       0.111250
     55 HN1         -6.6480    -1.7930     1.5900 hn         1 HQL       0.381000
@<TRIPOS>BOND
     1     1     2 ar  
     2     1    28 ar  
     3     1    29 1   
     4     2     3 ar  
     5     2    30 1   
     6     3     4 ar  
     7     3    31 1   
     8     4     5 1   
     9     4    27 ar  
    10     5     6 1   
    11     5    21 1   
    12     5    32 1   
    13     6     7 1   
    14     7     8 1   
    15     7    20 1   
    16     7    33 1   
    17     8     9 1   
    18     8    34 1   
    19     8    35 1   
    20     9    10 1   
    21     9    36 1   
    22     9    37 1   
    23    10    11 1   
    24    10    19 1   
    25    11    12 1   
    26    11    38 1   
    27    11    39 1   
    28    12    13 1   
    29    12    40 1   
    30    12    41 1   
    31    13    14 1   
    32    13    42 1   
    33    13    43 1   
    34    14    15 1   
    35    14    18 2   
    36    15    16 1   
    37    15    55 1   
    38    16    17 2   
    39    17    18 1   
    40    19    20 1   
    41    19    44 1   
    42    19    45 1   
    43    20    46 1   
    44    20    47 1   
    45    21    22 ar  
    46    21    26 ar  
    47    22    23 ar  
    48    22    48 1   
    49    23    24 ar  
    50    23    49 1   
    51    24    25 ar  
    52    24    50 1   
    53    25    26 ar  
    54    25    51 1   
    55    26    52 1   
    56    27    28 ar  
    57    27    53 1   
    58    28    54 1   
@<TRIPOS>SUBSTRUCTURE
     1 HQL         1 TEMP              0 ****  ****    0 ROOT
