@<TRIPOS>MOLECULE
HQM
   70    73     1     0     0
SMALL
No Charge or Current Charge


@<TRIPOS>ATOM
      1 C10         -1.2240    -1.0450     4.4720 c3         1 HQM      -0.080600
      2 C11          0.0140    -2.3070     2.6360 c3         1 HQM      -0.080600
      3 C12         -2.2850    -2.4000    -0.0890 c6         1 HQM       0.215500
      4 C13         -1.3390    -2.4790    -1.3200 c6         1 HQM      -0.092900
      5 C14         -1.5210    -3.8150    -2.0830 c6         1 HQM      -0.071900
      6 C15         -2.9970    -4.0290    -2.5010 c6         1 HQM      -0.075400
      7 C16         -3.9430    -3.9470    -1.2780 c6         1 HQM      -0.071900
      8 C17         -3.7620    -2.6060    -0.5230 c6         1 HQM      -0.092900
      9 C19          1.5690     0.4270    -0.4140 c          1 HQM       0.653100
     10 C21          3.8420    -0.6700     0.0760 ca         1 HQM       0.002000
     11 C22          4.6970     0.1820    -0.6560 ca         1 HQM      -0.145500
     12 C23          6.0860    -0.0410    -0.6650 ca         1 HQM      -0.087000
     13 C24          6.6410    -1.1140     0.0540 ca         1 HQM      -0.116300
     14 C25          5.7920    -1.9670     0.7810 ca         1 HQM      -0.087000
     15 C01         -2.3130     2.6600    -1.2150 ca         1 HQM       0.036700
     16 C02         -1.0640     2.0540    -0.9870 ca         1 HQM      -0.121000
     17 C03         -0.9780     0.7910    -0.3590 ca         1 HQM      -0.022000
     18 C04         -2.1640     0.1270     0.0380 ca         1 HQM       0.151000
     19 C05         -3.4090     0.7440    -0.1840 ca         1 HQM      -0.114000
     20 C06         -3.4860     1.9950    -0.8160 ca         1 HQM      -0.085000
     21 C08         -2.2740    -1.2130     2.1530 c3         1 HQM       0.199800
     22 C09         -0.9490    -1.1350     2.9540 c3         1 HQM      -0.069700
     23 C26          4.4040    -1.7440     0.7910 ca         1 HQM      -0.145500
     24 C27          8.1430    -1.3540     0.0400 c3         1 HQM      -0.035800
     25 C29         -2.3790     3.9980    -1.9020 cx         1 HQM      -0.112400
     26 C30         -3.4240     5.0370    -1.5610 cx         1 HQM      -0.125400
     27 C31         -1.9690     5.2910    -1.2160 cx         1 HQM      -0.191700
     28 C32         -1.5160     5.2650     0.2360 c          1 HQM       0.735000
     29 N07         -2.1120    -1.1350     0.6850 nh         1 HQM      -0.804400
     30 N20          2.4310    -0.5120     0.1340 ns         1 HQM      -0.173000
     31 O28          1.9210     1.3720    -1.1090 o          1 HQM      -0.588100
     32 O33         -0.3440     4.9990     0.4570 o          1 HQM      -0.729500
     33 O34         -2.3000     5.6280     1.1010 o          1 HQM      -0.729500
     34 H1          -1.8590    -0.1800     4.6990 hc         1 HQM       0.027533
     35 H2          -1.7310    -1.9480     4.8310 hc         1 HQM       0.027533
     36 H3          -0.2860    -0.9320     5.0300 hc         1 HQM       0.027533
     37 H4          -0.4450    -3.2680     2.8970 hc         1 HQM       0.027533
     38 H5           0.2730    -2.3310     1.5720 hc         1 HQM       0.027533
     39 H6           0.9460    -2.2060     3.2040 hc         1 HQM       0.027533
     40 H7          -2.0180    -3.2440     0.5660 h1         1 HQM       0.038700
     41 H8          -1.5330    -1.6400    -2.0030 hc         1 HQM       0.050450
     42 H9          -0.2950    -2.3910    -0.9950 hc         1 HQM       0.050450
     43 H10         -0.8770    -3.8260    -2.9730 hc         1 HQM       0.032200
     44 H11         -1.1920    -4.6490    -1.4490 hc         1 HQM       0.032200
     45 H12         -3.2850    -3.2710    -3.2420 hc         1 HQM       0.036200
     46 H13         -3.1070    -5.0050    -2.9930 hc         1 HQM       0.036200
     47 H14         -4.9860    -4.0520    -1.6050 hc         1 HQM       0.032200
     48 H15         -3.7420    -4.7850    -0.5960 hc         1 HQM       0.032200
     49 H16         -4.4180    -2.5860     0.3570 hc         1 HQM       0.050450
     50 H17         -4.0820    -1.7830    -1.1750 hc         1 HQM       0.050450
     51 H18          4.3100     1.0210    -1.2260 ha         1 HQM       0.127500
     52 H19          6.7310     0.6240    -1.2360 ha         1 HQM       0.105500
     53 H20          6.2060    -2.8030     1.3400 ha         1 HQM       0.105500
     54 H21         -0.1730     2.5890    -1.2940 ha         1 HQM       0.138000
     55 H22         -4.3220     0.2490     0.1340 ha         1 HQM       0.098000
     56 H23         -4.4590     2.4450    -0.9920 ha         1 HQM       0.127000
     57 H24         -2.7980    -2.1410     2.4230 h1         1 HQM       0.028700
     58 H25         -2.9250    -0.3900     2.4780 h1         1 HQM       0.028700
     59 H26         -0.4480    -0.2040     2.6650 hc         1 HQM       0.082700
     60 H27          3.7630    -2.4140     1.3590 ha         1 HQM       0.127500
     61 H28          8.4820    -1.8240     0.9700 hc         1 HQM       0.034367
     62 H29          8.4240    -2.0130    -0.7900 hc         1 HQM       0.034367
     63 H30          8.6970    -0.4150    -0.0750 hc         1 HQM       0.034367
     64 H31         -2.1180     3.9130    -2.9550 hc         1 HQM       0.051700
     65 H32         -3.8560     5.6050    -2.3800 hc         1 HQM       0.057700
     66 H33         -4.1120     4.8280    -0.7460 hc         1 HQM       0.057700
     67 H34         -1.4500     6.0200    -1.8320 hc         1 HQM       0.058700
     68 H35          0.1340    -0.6900     0.4770 hn         1 HQM       0.160000
     69 H36          1.9690    -1.2250     0.6840 hn         1 HQM       0.143000
     70 N18          0.2570     0.1470    -0.0770 ns         1 HQM      -0.151000
@<TRIPOS>BOND
     1     1    22 1   
     2     1    34 1   
     3     1    35 1   
     4     1    36 1   
     5     2    22 1   
     6     2    37 1   
     7     2    38 1   
     8     2    39 1   
     9     3     4 1   
    10     3     8 1   
    11     3    29 1   
    12     3    40 1   
    13     4     5 1   
    14     4    41 1   
    15     4    42 1   
    16     5     6 1   
    17     5    43 1   
    18     5    44 1   
    19     6     7 1   
    20     6    45 1   
    21     6    46 1   
    22     7     8 1   
    23     7    47 1   
    24     7    48 1   
    25     8    49 1   
    26     8    50 1   
    27     9    30 1   
    28     9    31 2   
    29     9    70 1   
    30    10    11 ar  
    31    10    23 ar  
    32    10    30 1   
    33    11    12 ar  
    34    11    51 1   
    35    12    13 ar  
    36    12    52 1   
    37    13    14 ar  
    38    13    24 1   
    39    14    23 ar  
    40    14    53 1   
    41    15    16 ar  
    42    15    20 ar  
    43    15    25 1   
    44    16    17 ar  
    45    16    54 1   
    46    17    18 ar  
    47    17    70 1   
    48    18    19 ar  
    49    18    29 1   
    50    19    20 ar  
    51    19    55 1   
    52    20    56 1   
    53    21    22 1   
    54    21    29 1   
    55    21    57 1   
    56    21    58 1   
    57    22    59 1   
    58    23    60 1   
    59    24    61 1   
    60    24    62 1   
    61    24    63 1   
    62    25    26 1   
    63    25    27 1   
    64    25    64 1   
    65    26    27 1   
    66    26    65 1   
    67    26    66 1   
    68    27    28 1   
    69    27    67 1   
    70    28    32 1   
    71    28    33 1   
    72    30    69 1   
    73    68    70 1   
@<TRIPOS>SUBSTRUCTURE
     1 HQM         1 TEMP              0 ****  ****    0 ROOT
