@<TRIPOS>MOLECULE
HQM
   70    73     1     0     0
SMALL
abcg2


@<TRIPOS>ATOM
      1 C10         -1.1540    -0.5560     4.1710 c3         1 HQM      -0.080600
      2 C11          0.3770    -1.9140     2.7240 c3         1 HQM      -0.080600
      3 C12         -2.4430    -2.5040    -0.1910 c6         1 HQM       0.215500
      4 C13         -2.0320    -2.5630    -1.6600 c6         1 HQM      -0.092900
      5 C14         -2.6150    -3.7990    -2.3430 c6         1 HQM      -0.071900
      6 C15         -4.1320    -3.8650    -2.2000 c6         1 HQM      -0.075400
      7 C16         -4.5420    -3.7810    -0.7340 c6         1 HQM      -0.071900
      8 C17         -3.9710    -2.5240    -0.0840 c6         1 HQM      -0.092900
      9 C19          1.7480     0.0910    -0.4390 c          1 HQM       0.653100
     10 C21          4.0060    -0.8390    -0.0390 ca         1 HQM       0.002000
     11 C22          4.6280     0.2550     0.5590 ca         1 HQM      -0.145500
     12 C23          6.0060     0.2570     0.7320 ca         1 HQM      -0.087000
     13 C24          6.8030    -0.8140     0.3430 ca         1 HQM      -0.116300
     14 C25          6.1650    -1.9070    -0.2400 ca         1 HQM      -0.087000
     15 C01         -1.9180     2.4380    -1.2500 ca         1 HQM       0.036700
     16 C02         -0.7390     1.6960    -1.2220 ca         1 HQM      -0.121000
     17 C03         -0.6910     0.4430    -0.6190 ca         1 HQM      -0.022000
     18 C04         -1.8550    -0.1130    -0.0580 ca         1 HQM       0.151000
     19 C05         -3.0190     0.6460    -0.0780 ca         1 HQM      -0.114000
     20 C06         -3.0580     1.9020    -0.6630 ca         1 HQM      -0.085000
     21 C08         -1.9740    -1.4150     1.9670 c3         1 HQM       0.199800
     22 C09         -0.7590    -0.8970     2.7390 c3         1 HQM      -0.069700
     23 C26          4.7950    -1.9210    -0.4340 ca         1 HQM      -0.145500
     24 C27          8.2890    -0.8110     0.5590 c3         1 HQM      -0.035800
     25 C29         -1.8940     3.7530    -1.9410 cx         1 HQM      -0.112400
     26 C30         -3.0290     4.7190    -1.9490 cx         1 HQM      -0.125400
     27 C31         -1.7890     5.0740    -1.1920 cx         1 HQM      -0.191700
     28 C32         -1.7780     5.0890     0.3250 c          1 HQM       0.735000
     29 N07         -1.7690    -1.4120     0.5230 nh         1 HQM      -0.804400
     30 N20          2.6230    -0.9410    -0.2210 ns         1 HQM      -0.173000
     31 O28          2.0870     1.2580    -0.5190 o          1 HQM      -0.588100
     32 O33         -0.7780     5.6200     0.8530 o          1 HQM      -0.729500
     33 O34         -2.7450     4.5730     0.9180 o          1 HQM      -0.729500
     34 H1          -1.9210     0.2190     4.2020 hc         1 HQM       0.027533
     35 H2          -1.5480    -1.4340     4.6900 hc         1 HQM       0.027533
     36 H3          -0.2970    -0.1960     4.7430 hc         1 HQM       0.027533
     37 H4           0.0980    -2.8050     3.2920 hc         1 HQM       0.027533
     38 H5           0.6250    -2.2420     1.7140 hc         1 HQM       0.027533
     39 H6           1.2860    -1.5060     3.1670 hc         1 HQM       0.027533
     40 H7          -2.0720    -3.4210     0.2860 h1         1 HQM       0.038700
     41 H8          -2.3820    -1.6620    -2.1740 hc         1 HQM       0.050450
     42 H9          -0.9420    -2.5760    -1.7470 hc         1 HQM       0.050450
     43 H10         -2.3320    -3.8020    -3.3990 hc         1 HQM       0.032200
     44 H11         -2.1710    -4.6970    -1.9010 hc         1 HQM       0.032200
     45 H12         -4.5850    -3.0330    -2.7490 hc         1 HQM       0.036200
     46 H13         -4.5140    -4.7840    -2.6530 hc         1 HQM       0.036200
     47 H14         -5.6300    -3.7910    -0.6390 hc         1 HQM       0.032200
     48 H15         -4.1740    -4.6660    -0.2020 hc         1 HQM       0.032200
     49 H16         -4.2820    -2.4670     0.9630 hc         1 HQM       0.050450
     50 H17         -4.3870    -1.6470    -0.5900 hc         1 HQM       0.050450
     51 H18          4.0550     1.1030     0.9010 ha         1 HQM       0.127500
     52 H19          6.4670     1.1220     1.1960 ha         1 HQM       0.105500
     53 H20          6.7460    -2.7640    -0.5600 ha         1 HQM       0.105500
     54 H21          0.1470     2.1080    -1.6820 ha         1 HQM       0.138000
     55 H22         -3.9170     0.2550     0.3830 ha         1 HQM       0.098000
     56 H23         -3.9870     2.4550    -0.6700 ha         1 HQM       0.127000
     57 H24         -2.1710    -2.4450     2.2820 h1         1 HQM       0.028700
     58 H25         -2.8620    -0.8350     2.2520 h1         1 HQM       0.028700
     59 H26         -0.4180     0.0250     2.2550 hc         1 HQM       0.082700
     60 H27          4.3290    -2.7820    -0.8980 ha         1 HQM       0.127500
     61 H28          8.5790    -1.5320     1.3270 hc         1 HQM       0.034367
     62 H29          8.8260    -1.0820    -0.3500 hc         1 HQM       0.034367
     63 H30          8.6440     0.1680     0.8790 hc         1 HQM       0.034367
     64 H31         -1.2970     3.7350    -2.8480 hc         1 HQM       0.051700
     65 H32         -3.2400     5.2370    -2.8770 hc         1 HQM       0.057700
     66 H33         -3.9030     4.4870    -1.3550 hc         1 HQM       0.057700
     67 H34         -1.1190     5.7880    -1.6610 hc         1 HQM       0.058700
     68 H35          0.2290    -1.2660    -0.1920 hn         1 HQM       0.160000
     69 H36          2.2840    -1.8770    -0.3820 hn         1 HQM       0.143000
     70 N18          0.4570    -0.3480    -0.5600 ns         1 HQM      -0.151000
@<TRIPOS>BOND
     1     1    22 1   
     2     1    34 1   
     3     1    35 1   
     4     1    36 1   
     5     2    22 1   
     6     2    37 1   
     7     2    38 1   
     8     2    39 1   
     9     3     4 1   
    10     3     8 1   
    11     3    29 1   
    12     3    40 1   
    13     4     5 1   
    14     4    41 1   
    15     4    42 1   
    16     5     6 1   
    17     5    43 1   
    18     5    44 1   
    19     6     7 1   
    20     6    45 1   
    21     6    46 1   
    22     7     8 1   
    23     7    47 1   
    24     7    48 1   
    25     8    49 1   
    26     8    50 1   
    27     9    30 1   
    28     9    31 2   
    29     9    70 1   
    30    10    11 ar  
    31    10    23 ar  
    32    10    30 1   
    33    11    12 ar  
    34    11    51 1   
    35    12    13 ar  
    36    12    52 1   
    37    13    14 ar  
    38    13    24 1   
    39    14    23 ar  
    40    14    53 1   
    41    15    16 ar  
    42    15    20 ar  
    43    15    25 1   
    44    16    17 ar  
    45    16    54 1   
    46    17    18 ar  
    47    17    70 1   
    48    18    19 ar  
    49    18    29 1   
    50    19    20 ar  
    51    19    55 1   
    52    20    56 1   
    53    21    22 1   
    54    21    29 1   
    55    21    57 1   
    56    21    58 1   
    57    22    59 1   
    58    23    60 1   
    59    24    61 1   
    60    24    62 1   
    61    24    63 1   
    62    25    26 1   
    63    25    27 1   
    64    25    64 1   
    65    26    27 1   
    66    26    65 1   
    67    26    66 1   
    68    27    28 1   
    69    27    67 1   
    70    28    32 1   
    71    28    33 1   
    72    30    69 1   
    73    68    70 1   
@<TRIPOS>SUBSTRUCTURE
     1 HQM         1 TEMP              0 ****  ****    0 ROOT
