@<TRIPOS>MOLECULE
HQN
   15    15     1     0     0
SMALL
No Charge or Current Charge


@<TRIPOS>ATOM
      1 C1           0.5190     1.2040    -0.0390 ca         1 HQN      -0.213000
      2 O1          -2.4940    -0.9310    -0.3300 oh         1 HQN      -0.515100
      3 C2          -0.8290     0.8330    -0.1850 ca         1 HQN       0.148100
      4 O2          -1.7790     1.8090    -0.3230 oh         1 HQN      -0.511100
      5 C3          -1.1870    -0.5400    -0.1890 ca         1 HQN       0.072100
      6 O3           2.8080     0.5920     0.2450 oh         1 HQN      -0.534100
      7 C4          -0.1870    -1.5200    -0.0450 ca         1 HQN      -0.131000
      8 C5           1.1590    -1.1390     0.1010 ca         1 HQN      -0.204000
      9 C6           1.5070     0.2210     0.1040 ca         1 HQN       0.145100
     10 H1           0.8050     2.2520    -0.0350 ha         1 HQN       0.131000
     11 HO1         -2.5360    -1.9110    -0.3080 ho         1 HQN       0.456000
     12 HO2         -1.3330     2.6820    -0.2950 ho         1 HQN       0.462000
     13 HO3          3.3530    -0.2190     0.3310 ho         1 HQN       0.464000
     14 H4          -0.4470    -2.5770    -0.0460 ha         1 HQN       0.115000
     15 H5           1.9240    -1.9040     0.2110 ha         1 HQN       0.116000
@<TRIPOS>BOND
     1     1     3 ar  
     2     1     9 ar  
     3     1    10 1   
     4     2     5 1   
     5     2    11 1   
     6     3     4 1   
     7     3     5 ar  
     8     4    12 1   
     9     5     7 ar  
    10     6     9 1   
    11     6    13 1   
    12     7     8 ar  
    13     7    14 1   
    14     8     9 ar  
    15     8    15 1   
@<TRIPOS>SUBSTRUCTURE
     1 HQN         1 TEMP              0 ****  ****    0 ROOT
