@<TRIPOS>MOLECULE
HQN
   15    15     1     0     0
SMALL
bcc


@<TRIPOS>ATOM
      1 C1           0.5390     1.1640    -0.0480 ca         1 HQN      -0.231000
      2 O1          -2.4770    -0.8310    -0.3520 oh         1 HQN      -0.476100
      3 C2          -0.7920     0.8050    -0.1910 ca         1 HQN       0.148100
      4 O2          -1.7860     1.7060    -0.3280 oh         1 HQN      -0.472100
      5 C3          -1.1590    -0.5480    -0.1980 ca         1 HQN       0.072100
      6 O3           2.8050     0.6090     0.2140 oh         1 HQN      -0.495100
      7 C4          -0.1720    -1.5060    -0.0600 ca         1 HQN      -0.149000
      8 C5           1.1680    -1.1520     0.0860 ca         1 HQN      -0.222000
      9 C6           1.5250     0.1870     0.0900 ca         1 HQN       0.145100
     10 H1           0.8190     2.2120    -0.0370 ha         1 HQN       0.149000
     11 HO1         -2.6190    -1.7770    -0.2450 ho         1 HQN       0.417000
     12 HO2         -1.4300     2.6000    -0.2770 ho         1 HQN       0.423000
     13 HO3          3.3780    -0.1350     0.4290 ho         1 HQN       0.425000
     14 H4          -0.4380    -2.5570    -0.0640 ha         1 HQN       0.133000
     15 H5           1.9210    -1.9250     0.1770 ha         1 HQN       0.134000
@<TRIPOS>BOND
     1     1     3 ar  
     2     1     9 ar  
     3     1    10 1   
     4     2     5 1   
     5     2    11 1   
     6     3     4 1   
     7     3     5 ar  
     8     4    12 1   
     9     5     7 ar  
    10     6     9 1   
    11     6    13 1   
    12     7     8 ar  
    13     7    14 1   
    14     8     9 ar  
    15     8    15 1   
@<TRIPOS>SUBSTRUCTURE
     1 HQN         1 TEMP              0 ****  ****    0 ROOT
