@<TRIPOS>MOLECULE
HQO
   40    41     1     0     0
SMALL
bcc


@<TRIPOS>ATOM
      1 C1          -2.6190    -1.7140     0.2390 ca         1 HQO       0.148100
      2 O1          -3.2860    -2.8620     0.1120 oh         1 HQO      -0.481100
      3 C2          -1.3260    -1.6200     0.6770 ca         1 HQO      -0.233000
      4 C3          -0.6780    -0.3820     0.7870 ca         1 HQO      -0.083600
      5 N1          -1.3050     0.7500     0.4560 na         1 HQO       0.189600
      6 O4          -0.7140     1.8870     0.5420 o          1 HQO      -0.352000
      7 C5          -2.6220     0.7080     0.0170 ca         1 HQO      -0.047300
      8 C6          -3.2680     1.9130    -0.3070 ca         1 HQO      -0.090000
      9 C7          -4.5690     1.8880    -0.7400 ca         1 HQO      -0.119000
     10 C8          -5.2630     0.6720    -0.8650 ca         1 HQO      -0.120000
     11 C9          -4.6430    -0.5080    -0.5510 ca         1 HQO      -0.098000
     12 C10         -3.3060    -0.5180    -0.1010 ca         1 HQO      -0.048000
     13 C11          0.7380    -0.2910     1.2450 c3         1 HQO      -0.019100
     14 C12          3.1660    -0.0570     0.5940 c3         1 HQO      -0.074400
     15 C13          1.7320    -0.1490     0.0870 c3         1 HQO      -0.071400
     16 C14          4.2050    -0.0170    -0.5180 c3         1 HQO      -0.073400
     17 C15          5.6300     0.0840     0.0130 c3         1 HQO      -0.076400
     18 C16          6.6900     0.0870    -1.0810 c3         1 HQO      -0.074400
     19 C17          8.1060     0.2010    -0.5310 c3         1 HQO      -0.088100
     20 HO11        -2.7300    -3.6110     0.3570 ho         1 HQO       0.435000
     21 HC2         -0.7690    -2.5060     0.9540 ha         1 HQO       0.149000
     22 HC6         -2.7360     2.8460    -0.2110 ha         1 HQO       0.177000
     23 HC7         -5.0650     2.8170    -0.9880 ha         1 HQO       0.140000
     24 HC8         -6.2880     0.6700    -1.2090 ha         1 HQO       0.139000
     25 HC9         -5.1810    -1.4410    -0.6490 ha         1 HQO       0.152000
     26 H111         0.9730    -1.1970     1.8060 hc         1 HQO       0.062200
     27 H112         0.8510     0.5510     1.9300 hc         1 HQO       0.062200
     28 H121         3.3700    -0.9120     1.2480 hc         1 HQO       0.037700
     29 H122         3.2680     0.8340     1.2230 hc         1 HQO       0.037700
     30 H131         1.4860     0.7390    -0.4980 hc         1 HQO       0.050200
     31 H132         1.6310    -1.0100    -0.5820 hc         1 HQO       0.050200
     32 H141         4.0050     0.8310    -1.1820 hc         1 HQO       0.038200
     33 H142         4.1100    -0.9150    -1.1380 hc         1 HQO       0.038200
     34 H151         5.8180    -0.7500     0.6980 hc         1 HQO       0.036700
     35 H152         5.7270     0.9940     0.6160 hc         1 HQO       0.036700
     36 H161         6.5000     0.9160    -1.7700 hc         1 HQO       0.036700
     37 H162         6.6000    -0.8270    -1.6760 hc         1 HQO       0.036700
     38 H171         8.2340     1.1270     0.0340 hc         1 HQO       0.031033
     39 H172         8.3360    -0.6280     0.1410 hc         1 HQO       0.031033
     40 H173         8.8480     0.1960    -1.3300 hc         1 HQO       0.031033
@<TRIPOS>BOND
     1     1     2 1   
     2     1     3 ar  
     3     1    12 ar  
     4     2    20 1   
     5     3     4 ar  
     6     3    21 1   
     7     4     5 1   
     8     4    13 1   
     9     5     6 1   
    10     5     7 2   
    11     7     8 ar  
    12     7    12 ar  
    13     8     9 ar  
    14     8    22 1   
    15     9    10 ar  
    16     9    23 1   
    17    10    11 ar  
    18    10    24 1   
    19    11    12 ar  
    20    11    25 1   
    21    13    15 1   
    22    13    26 1   
    23    13    27 1   
    24    14    15 1   
    25    14    16 1   
    26    14    28 1   
    27    14    29 1   
    28    15    30 1   
    29    15    31 1   
    30    16    17 1   
    31    16    32 1   
    32    16    33 1   
    33    17    18 1   
    34    17    34 1   
    35    17    35 1   
    36    18    19 1   
    37    18    36 1   
    38    18    37 1   
    39    19    38 1   
    40    19    39 1   
    41    19    40 1   
@<TRIPOS>SUBSTRUCTURE
     1 HQO         1 TEMP              0 ****  ****    0 ROOT
