@<TRIPOS>MOLECULE
HQO
   40    41     1     0     0
SMALL
No Charge or Current Charge


@<TRIPOS>ATOM
      1 C1          -2.6070    -1.6420     0.1560 ca         1 HQO       0.148100
      2 O1          -3.1510    -2.8850    -0.0060 oh         1 HQO      -0.520100
      3 C2          -1.2940    -1.5380     0.6350 ca         1 HQO      -0.215000
      4 C3          -0.7000    -0.2730     0.8160 ca         1 HQO      -0.134300
      5 N1          -1.4180     0.8980     0.5040 na         1 HQO       0.430300
      6 O4          -0.8760     2.0110     0.6270 o          1 HQO      -0.542000
      7 C5          -2.7420     0.8010     0.0300 ca         1 HQO      -0.047300
      8 C6          -3.4910     1.9640    -0.2770 ca         1 HQO      -0.072000
      9 C7          -4.8090     1.8640    -0.7520 ca         1 HQO      -0.101000
     10 C8          -5.3980     0.6040    -0.9270 ca         1 HQO      -0.102000
     11 C9          -4.6710    -0.5580    -0.6280 ca         1 HQO      -0.080000
     12 C10         -3.3430    -0.4730    -0.1490 ca         1 HQO      -0.048000
     13 C11          0.7380    -0.1910     1.3370 c3         1 HQO      -0.019100
     14 C12          3.2310    -0.0880     0.6870 c3         1 HQO      -0.074400
     15 C13          1.7700    -0.1530     0.1890 c3         1 HQO      -0.071400
     16 C14          4.2600    -0.0490    -0.4640 c3         1 HQO      -0.073400
     17 C15          5.7210     0.0160     0.0330 c3         1 HQO      -0.076400
     18 C16          6.7500     0.0550    -1.1170 c3         1 HQO      -0.074400
     19 C17          8.2080     0.1200    -0.6210 c3         1 HQO      -0.088100
     20 HO11        -2.4850    -3.5530     0.2600 ho         1 HQO       0.474000
     21 HC2         -0.7260    -2.4360     0.8700 ha         1 HQO       0.131000
     22 HC6         -3.0560     2.9530    -0.1490 ha         1 HQO       0.159000
     23 HC7         -5.3730     2.7650    -0.9830 ha         1 HQO       0.122000
     24 HC8         -6.4190     0.5270    -1.2950 ha         1 HQO       0.121000
     25 HC9         -5.1480    -1.5250    -0.7720 ha         1 HQO       0.134000
     26 H111         0.9520    -1.0560     1.9770 hc         1 HQO       0.062200
     27 H112         0.8730     0.6890     1.9770 hc         1 HQO       0.062200
     28 H121         3.4340    -0.9590     1.3230 hc         1 HQO       0.037700
     29 H122         3.3580     0.8040     1.3140 hc         1 HQO       0.037700
     30 H131         1.5670     0.7170    -0.4480 hc         1 HQO       0.050200
     31 H132         1.6410    -1.0440    -0.4380 hc         1 HQO       0.050200
     32 H141         4.0570     0.8220    -1.1000 hc         1 HQO       0.038200
     33 H142         4.1330    -0.9410    -1.0910 hc         1 HQO       0.038200
     34 H151         5.9240    -0.8550     0.6690 hc         1 HQO       0.036700
     35 H152         5.8480     0.9070     0.6600 hc         1 HQO       0.036700
     36 H161         6.5510     0.9260    -1.7540 hc         1 HQO       0.036700
     37 H162         6.6270    -0.8360    -1.7450 hc         1 HQO       0.036700
     38 H171         8.3720     1.0210    -0.0170 hc         1 HQO       0.031033
     39 H172         8.4490    -0.7570    -0.0090 hc         1 HQO       0.031033
     40 H173         8.9000     0.1450    -1.4710 hc         1 HQO       0.031033
@<TRIPOS>BOND
     1     1     2 1   
     2     1     3 ar  
     3     1    12 ar  
     4     2    20 1   
     5     3     4 ar  
     6     3    21 1   
     7     4     5 1   
     8     4    13 1   
     9     5     6 1   
    10     5     7 2   
    11     7     8 ar  
    12     7    12 ar  
    13     8     9 ar  
    14     8    22 1   
    15     9    10 ar  
    16     9    23 1   
    17    10    11 ar  
    18    10    24 1   
    19    11    12 ar  
    20    11    25 1   
    21    13    15 1   
    22    13    26 1   
    23    13    27 1   
    24    14    15 1   
    25    14    16 1   
    26    14    28 1   
    27    14    29 1   
    28    15    30 1   
    29    15    31 1   
    30    16    17 1   
    31    16    32 1   
    32    16    33 1   
    33    17    18 1   
    34    17    34 1   
    35    17    35 1   
    36    18    19 1   
    37    18    36 1   
    38    18    37 1   
    39    19    38 1   
    40    19    39 1   
    41    19    40 1   
@<TRIPOS>SUBSTRUCTURE
     1 HQO         1 TEMP              0 ****  ****    0 ROOT
