@<TRIPOS>MOLECULE
HQP
   45    49     1     0     0
SMALL
No Charge or Current Charge


@<TRIPOS>ATOM
      1 CAL          9.1160    -3.1710   -11.5760 cx         1 HQP      -0.111900
      2 CAM          9.2050    -1.9500   -12.4590 cx         1 HQP      -0.111900
      3 CBB          9.3510    -1.8100   -10.9620 cx         1 HQP      -0.085400
      4 CAX          8.2740    -1.1560   -10.2010 cc         1 HQP      -0.081300
      5 CAK          7.3310    -1.6830    -9.3620 cd         1 HQP      -0.273000
      6 NAS          7.9720     0.2090   -10.1770 na         1 HQP      -0.003200
      7 NAN          6.8960     0.5390    -9.3680 nc         1 HQP      -0.483800
      8 CAV          6.5360    -0.6280    -8.9010 cd         1 HQP       0.487900
      9 NAR          5.5030    -0.8090    -8.0320 nu         1 HQP      -0.885800
     10 C6           4.5360     0.0340    -7.4730 ca         1 HQP       0.417900
     11 N1           4.4700     1.2890    -7.9440 nb         1 HQP      -0.227000
     12 C5           3.6500    -0.4120    -6.4640 ca         1 HQP      -0.184000
     13 CAJ          3.6770    -1.7260    -5.9380 ca         1 HQP      -0.070000
     14 CAD          2.7680    -2.1010    -4.9350 ca         1 HQP      -0.128000
     15 CAC          1.8330    -1.1760    -4.4500 ca         1 HQP      -0.080000
     16 CAI          1.8050     0.1290    -4.9680 ca         1 HQP      -0.102000
     17 C4           2.7070     0.5240    -5.9730 ca         1 HQP       0.066000
     18 N3           2.6720     1.7810    -6.4600 nb         1 HQP      -0.242000
     19 C2           3.5490     2.1200    -7.4230 ca         1 HQP       0.374000
     20 NAQ          3.4790     3.4400    -7.9060 ne         1 HQP      -0.621700
     21 CAU          4.4020     3.9380    -8.6720 cf         1 HQP       0.564900
     22 CAG          4.3050     3.8590   -10.1200 cf         1 HQP      -0.269600
     23 CAE          5.3190     4.2170   -10.9480 c2         1 HQP      -0.188700
     24 CAT          6.6670     4.7250   -10.4250 c6         1 HQP       0.057800
     25 CAB          7.7590     3.8390   -10.8900 c1         1 HQP       0.305900
     26 NAA          8.5970     3.1210   -11.2660 n1         1 HQP      -0.451000
     27 CAF          6.6920     4.8380    -8.8970 c2         1 HQP      -0.188700
     28 CAH          5.6410     4.4640    -8.1220 cf         1 HQP      -0.269600
     29 HAL1         8.1390    -3.6310   -11.4480 hc         1 HQP       0.077700
     30 HAL2         9.9490    -3.8700   -11.5900 hc         1 HQP       0.077700
     31 HAM1        10.0970    -1.8280   -13.0690 hc         1 HQP       0.077700
     32 HAM2         8.2870    -1.5910   -12.9190 hc         1 HQP       0.077700
     33 HBB         10.3470    -1.5970   -10.5790 hc         1 HQP       0.084700
     34 HAK          7.2200    -2.7290    -9.1030 ha         1 HQP       0.143000
     35 HAS          8.4710     0.9330   -10.6930 hn         1 HQP       0.375000
     36 HAR          5.4350    -1.7710    -7.7220 hn         1 HQP       0.505000
     37 HAJ          4.3910    -2.4650    -6.2910 ha         1 HQP       0.104000
     38 HAD          2.7910    -3.1120    -4.5330 ha         1 HQP       0.117000
     39 HAC          1.1300    -1.4680    -3.6720 ha         1 HQP       0.117000
     40 HAI          1.0780     0.8420    -4.5850 ha         1 HQP       0.134000
     41 HAG          3.3640     3.4870   -10.5240 ha         1 HQP       0.206000
     42 HAH          5.6960     4.5440    -7.0370 ha         1 HQP       0.206000
     43 HAE          5.2010     4.1430   -12.0330 ha         1 HQP       0.192500
     44 HAF          7.6040     5.2300    -8.4400 ha         1 HQP       0.192500
     45 HAT          6.8700     5.7140   -10.8600 hc         1 HQP       0.096700
@<TRIPOS>BOND
     1     1     2 1   
     2     1     3 1   
     3     1    29 1   
     4     1    30 1   
     5     2     3 1   
     6     2    31 1   
     7     2    32 1   
     8     3     4 1   
     9     3    33 1   
    10     4     5 2   
    11     4     6 1   
    12     5     8 1   
    13     5    34 1   
    14     6     7 1   
    15     6    35 1   
    16     7     8 2   
    17     8     9 1   
    18     9    10 1   
    19     9    36 1   
    20    10    11 ar  
    21    10    12 ar  
    22    11    19 ar  
    23    12    13 ar  
    24    12    17 ar  
    25    13    14 ar  
    26    13    37 1   
    27    14    15 ar  
    28    14    38 1   
    29    15    16 ar  
    30    15    39 1   
    31    16    17 ar  
    32    16    40 1   
    33    17    18 ar  
    34    18    19 ar  
    35    19    20 1   
    36    20    21 2   
    37    21    22 1   
    38    21    28 1   
    39    22    23 2   
    40    22    41 1   
    41    23    24 1   
    42    23    43 1   
    43    24    25 1   
    44    24    27 1   
    45    24    45 1   
    46    25    26 3   
    47    27    28 2   
    48    27    44 1   
    49    28    42 1   
@<TRIPOS>SUBSTRUCTURE
     1 HQP         1 TEMP              0 ****  ****    0 ROOT
