@<TRIPOS>MOLECULE
HQP
   45    49     1     0     0
SMALL
bcc


@<TRIPOS>ATOM
      1 CAL          9.9780    -3.9450   -11.0340 cx         1 HQP      -0.111900
      2 CAM          8.9410    -4.8090   -11.6650 cx         1 HQP      -0.111900
      3 CBB          8.8550    -3.3130   -11.8090 cx         1 HQP      -0.085400
      4 CAX          7.8070    -2.5710   -11.0980 cc         1 HQP      -0.030600
      5 CAK          7.2900    -2.6950    -9.8250 cd         1 HQP      -0.356300
      6 NAS          7.1400    -1.5520   -11.6620 na         1 HQP      -0.003600
      7 NAN          6.2200    -0.9970   -10.8670 nc         1 HQP      -0.483800
      8 CAV          6.3100    -1.6860    -9.7490 cd         1 HQP       0.553200
      9 NAR          5.5080    -1.4840    -8.6310 nu         1 HQP      -0.830600
     10 C6           4.8450    -0.3730    -8.2490 ca         1 HQP       0.746200
     11 N1           4.9180     0.7090    -8.9860 nb         1 HQP      -0.753000
     12 C5           4.0620    -0.4000    -7.0380 ca         1 HQP      -0.314600
     13 CAJ          3.8860    -1.5240    -6.2120 ca         1 HQP      -0.088000
     14 CAD          3.1180    -1.4390    -5.0770 ca         1 HQP      -0.146000
     15 CAC          2.5000    -0.2250    -4.7360 ca         1 HQP      -0.098000
     16 CAI          2.6520     0.8820    -5.5320 ca         1 HQP      -0.185300
     17 C4           3.4350     0.8170    -6.7010 ca         1 HQP       0.459600
     18 N3           3.5590     1.9310    -7.4690 nb         1 HQP      -0.768000
     19 C2           4.2780     1.8090    -8.5510 ca         1 HQP       0.900000
     20 NAQ          4.3460     2.8780    -9.4290 ne         1 HQP      -0.621700
     21 CAU          4.7600     4.0370    -9.0850 cf         1 HQP       0.564900
     22 CAG          4.6650     5.1060   -10.0770 cf         1 HQP      -0.219600
     23 CAE          5.0520     6.3530    -9.8250 c2         1 HQP      -0.138700
     24 CAT          5.6220     6.7590    -8.5000 c6         1 HQP       0.057800
     25 CAB          6.9200     7.4060    -8.6980 c1         1 HQP       0.216700
     26 NAA          7.9440     7.9030    -8.8580 n1         1 HQP      -0.361800
     27 CAF          5.7660     5.6270    -7.5280 c2         1 HQP      -0.138700
     28 CAH          5.3560     4.3890    -7.7940 cf         1 HQP      -0.219600
     29 HAL1         9.9660    -3.8320    -9.9570 hc         1 HQP       0.077700
     30 HAL2        10.9650    -3.9150   -11.4760 hc         1 HQP       0.077700
     31 HAM1         9.2100    -5.3760   -12.5470 hc         1 HQP       0.077700
     32 HAM2         8.2130    -5.2910   -11.0250 hc         1 HQP       0.077700
     33 HBB          9.1090    -2.9100   -12.7830 hc         1 HQP       0.084700
     34 HAK          7.5730    -3.3970    -9.0560 ha         1 HQP       0.161000
     35 HAS          7.2720    -1.1840   -12.5910 hn         1 HQP       0.324700
     36 HAR          5.5010    -2.2640    -7.9950 hn         1 HQP       0.449800
     37 HAJ          4.3410    -2.4770    -6.4520 ha         1 HQP       0.122000
     38 HAD          2.9850    -2.3090    -4.4480 ha         1 HQP       0.135000
     39 HAC          1.8950    -0.1660    -3.8410 ha         1 HQP       0.135000
     40 HAI          2.1750     1.8210    -5.2810 ha         1 HQP       0.152000
     41 HAG          4.2400     4.8440   -11.0380 ha         1 HQP       0.156000
     42 HAH          5.4740     3.6210    -7.0430 ha         1 HQP       0.156000
     43 HAE          4.9490     7.1290   -10.5730 ha         1 HQP       0.142500
     44 HAF          6.2130     5.8640    -6.5710 ha         1 HQP       0.142500
     45 HAT          4.9690     7.5230    -8.0530 hc         1 HQP       0.096700
@<TRIPOS>BOND
     1     1     2 1   
     2     1     3 1   
     3     1    29 1   
     4     1    30 1   
     5     2     3 1   
     6     2    31 1   
     7     2    32 1   
     8     3     4 1   
     9     3    33 1   
    10     4     5 2   
    11     4     6 1   
    12     5     8 1   
    13     5    34 1   
    14     6     7 1   
    15     6    35 1   
    16     7     8 2   
    17     8     9 1   
    18     9    10 1   
    19     9    36 1   
    20    10    11 ar  
    21    10    12 ar  
    22    11    19 ar  
    23    12    13 ar  
    24    12    17 ar  
    25    13    14 ar  
    26    13    37 1   
    27    14    15 ar  
    28    14    38 1   
    29    15    16 ar  
    30    15    39 1   
    31    16    17 ar  
    32    16    40 1   
    33    17    18 ar  
    34    18    19 ar  
    35    19    20 1   
    36    20    21 2   
    37    21    22 1   
    38    21    28 1   
    39    22    23 2   
    40    22    41 1   
    41    23    24 1   
    42    23    43 1   
    43    24    25 1   
    44    24    27 1   
    45    24    45 1   
    46    25    26 3   
    47    27    28 2   
    48    27    44 1   
    49    28    42 1   
@<TRIPOS>SUBSTRUCTURE
     1 HQP         1 TEMP              0 ****  ****    0 ROOT
