@<TRIPOS>MOLECULE
HQQ
   37    39     1     0     0
SMALL
abcg2


@<TRIPOS>ATOM
      1 N1          -1.2890     0.1680     3.8940 ns         1 HQQ      -0.480500
      2 C2          -0.9380    -1.0270     4.4760 c          1 HQQ       0.634000
      3 O2          -1.5690    -1.5120     5.3820 o          1 HQQ      -0.529000
      4 N3           0.1690    -1.6430     3.9410 ns         1 HQQ      -0.480500
      5 C4           0.9560    -1.1850     2.9190 c          1 HQQ       0.583000
      6 O4           1.8460    -1.8590     2.4630 o          1 HQQ      -0.486000
      7 C5           0.7010     0.2400     2.4510 c6         1 HQQ      -0.152700
      8 C6          -0.6510     0.8030     2.8620 c          1 HQQ       0.583000
      9 O6          -1.1120     1.7960     2.3570 o          1 HQQ      -0.486000
     10 C7           1.7420     1.1070     3.1930 c3         1 HQQ      -0.086100
     11 C8           0.8250     0.2900     0.9420 ca         1 HQQ      -0.095300
     12 C9           1.8210     1.0020     0.2890 ca         1 HQQ      -0.058500
     13 C10          1.9020     1.0100    -1.0960 ca         1 HQQ      -0.147500
     14 C11          0.9840     0.2920    -1.8470 ca         1 HQQ       0.143100
     15 C12         -0.0210    -0.4320    -1.2110 ca         1 HQQ      -0.147500
     16 C13         -0.0890    -0.4240     0.1700 ca         1 HQQ      -0.058500
     17 O11          1.1510     0.2960    -3.1990 os         1 HQQ      -0.253200
     18 C14          0.0650     0.1410    -4.0200 ca         1 HQQ       0.105100
     19 C15         -1.0430     0.9730    -3.9120 ca         1 HQQ      -0.130000
     20 C16         -2.0960     0.8170    -4.8010 ca         1 HQQ      -0.094000
     21 C17         -2.0450    -0.1540    -5.7940 ca         1 HQQ      -0.120000
     22 C18         -0.9280    -0.9730    -5.8950 ca         1 HQQ      -0.094000
     23 C19          0.1290    -0.8340    -5.0040 ca         1 HQQ      -0.130000
     24 HN1         -2.1410     0.5920     4.2430 hn         1 HQQ       0.350500
     25 HN3          0.3900    -2.5550     4.3230 hn         1 HQQ       0.350500
     26 H71          1.6070     1.0380     4.2730 hc         1 HQQ       0.059367
     27 H72          2.7520     0.7770     2.9590 hc         1 HQQ       0.059367
     28 H73          1.6390     2.1520     2.9060 hc         1 HQQ       0.059367
     29 H9           2.5540     1.5690     0.8450 ha         1 HQQ       0.114500
     30 H10          2.6850     1.5690    -1.5920 ha         1 HQQ       0.132000
     31 H12         -0.7440    -1.0040    -1.7780 ha         1 HQQ       0.132000
     32 H13         -0.8760    -0.9990     0.6460 ha         1 HQQ       0.114500
     33 H15         -1.0850     1.7400    -3.1490 ha         1 HQQ       0.129500
     34 H16         -2.9600     1.4640    -4.7200 ha         1 HQQ       0.116500
     35 H17         -2.8690    -0.2700    -6.4850 ha         1 HQQ       0.117000
     36 H18         -0.8780    -1.7310    -6.6650 ha         1 HQQ       0.116500
     37 H19          1.0000    -1.4730    -5.0750 ha         1 HQQ       0.129500
@<TRIPOS>BOND
     1     1     2 1   
     2     1     8 1   
     3     1    24 1   
     4     2     3 2   
     5     2     4 1   
     6     4     5 1   
     7     4    25 1   
     8     5     6 2   
     9     5     7 1   
    10     7     8 1   
    11     7    10 1   
    12     7    11 1   
    13     8     9 2   
    14    10    26 1   
    15    10    27 1   
    16    10    28 1   
    17    11    12 ar  
    18    11    16 ar  
    19    12    13 ar  
    20    12    29 1   
    21    13    14 ar  
    22    13    30 1   
    23    14    15 ar  
    24    14    17 1   
    25    15    16 ar  
    26    15    31 1   
    27    16    32 1   
    28    17    18 1   
    29    18    19 ar  
    30    18    23 ar  
    31    19    20 ar  
    32    19    33 1   
    33    20    21 ar  
    34    20    34 1   
    35    21    22 ar  
    36    21    35 1   
    37    22    23 ar  
    38    22    36 1   
    39    23    37 1   
@<TRIPOS>SUBSTRUCTURE
     1 HQQ         1 TEMP              0 ****  ****    0 ROOT
