@<TRIPOS>MOLECULE
HQQ
   37    39     1     0     0
SMALL
No Charge or Current Charge


@<TRIPOS>ATOM
      1 N1          -1.4100     0.1340     3.6420 ns         1 HQQ      -0.480500
      2 C2          -1.1970    -1.1110     4.1180 c          1 HQQ       0.634000
      3 O2          -2.0270    -1.7170     4.7660 o          1 HQQ      -0.529000
      4 N3           0.0120    -1.6300     3.8140 ns         1 HQQ      -0.480500
      5 C4           1.0270    -1.0690     3.1050 c          1 HQQ       0.583000
      6 O4           2.0590    -1.6920     2.9150 o          1 HQQ      -0.486000
      7 C5           0.8120     0.3550     2.5560 c6         1 HQQ      -0.152700
      8 C6          -0.5770     0.9210     2.9110 c          1 HQQ       0.583000
      9 O6          -0.9410     2.0300     2.5510 o          1 HQQ      -0.486000
     10 C7           1.8740     1.2790     3.2480 c3         1 HQQ      -0.086100
     11 C8           0.9310     0.3000     1.0070 ca         1 HQQ      -0.095300
     12 C9           1.9190     1.0150     0.2880 ca         1 HQQ      -0.058500
     13 C10          1.9810     0.9310    -1.1140 ca         1 HQQ      -0.147500
     14 C11          1.0610     0.1430    -1.8190 ca         1 HQQ       0.143100
     15 C12          0.0840    -0.5840    -1.1160 ca         1 HQQ      -0.147500
     16 C13          0.0180    -0.5020     0.2850 ca         1 HQQ      -0.058500
     17 O11          1.1550     0.0700    -3.1910 os         1 HQQ      -0.253200
     18 C14          0.0530     0.0180    -4.0140 ca         1 HQQ       0.105100
     19 C15         -1.1010     0.7780    -3.7370 ca         1 HQQ      -0.130000
     20 C16         -2.2070     0.7160    -4.6030 ca         1 HQQ      -0.094000
     21 C17         -2.1580    -0.0970    -5.7490 ca         1 HQQ      -0.120000
     22 C18         -1.0020    -0.8450    -6.0340 ca         1 HQQ      -0.094000
     23 C19          0.1040    -0.7830    -5.1680 ca         1 HQQ      -0.130000
     24 HN1         -2.3110     0.5320     3.8590 hn         1 HQQ       0.350500
     25 HN3          0.1830    -2.5620     4.1610 hn         1 HQQ       0.350500
     26 H71          1.7440     1.2840     4.3380 hc         1 HQQ       0.059367
     27 H72          2.8990     0.9440     3.0480 hc         1 HQQ       0.059367
     28 H73          1.7920     2.3200     2.9090 hc         1 HQQ       0.059367
     29 H9           2.6470     1.6410     0.7940 ha         1 HQQ       0.114500
     30 H10          2.7440     1.4820    -1.6570 ha         1 HQQ       0.132000
     31 H12         -0.6210    -1.2150    -1.6520 ha         1 HQQ       0.132000
     32 H13         -0.7480    -1.0700     0.8080 ha         1 HQQ       0.114500
     33 H15         -1.1410     1.4170    -2.8580 ha         1 HQQ       0.129500
     34 H16         -3.1000     1.3000    -4.3880 ha         1 HQQ       0.116500
     35 H17         -3.0140    -0.1440    -6.4200 ha         1 HQQ       0.117000
     36 H18         -0.9630    -1.4690    -6.9240 ha         1 HQQ       0.116500
     37 H19          1.0000    -1.3590    -5.3870 ha         1 HQQ       0.129500
@<TRIPOS>BOND
     1     1     2 1   
     2     1     8 1   
     3     1    24 1   
     4     2     3 2   
     5     2     4 1   
     6     4     5 1   
     7     4    25 1   
     8     5     6 2   
     9     5     7 1   
    10     7     8 1   
    11     7    10 1   
    12     7    11 1   
    13     8     9 2   
    14    10    26 1   
    15    10    27 1   
    16    10    28 1   
    17    11    12 ar  
    18    11    16 ar  
    19    12    13 ar  
    20    12    29 1   
    21    13    14 ar  
    22    13    30 1   
    23    14    15 ar  
    24    14    17 1   
    25    15    16 ar  
    26    15    31 1   
    27    16    32 1   
    28    17    18 1   
    29    18    19 ar  
    30    18    23 ar  
    31    19    20 ar  
    32    19    33 1   
    33    20    21 ar  
    34    20    34 1   
    35    21    22 ar  
    36    21    35 1   
    37    22    23 ar  
    38    22    36 1   
    39    23    37 1   
@<TRIPOS>SUBSTRUCTURE
     1 HQQ         1 TEMP              0 ****  ****    0 ROOT
