@<TRIPOS>MOLECULE
HQR
   24    24     1     0     0
SMALL
bcc


@<TRIPOS>ATOM
      1 C01        -11.0690    22.7960   -13.9200 c3         1 HQR      -0.090400
      2 C02        -10.2560    22.0780   -12.8980 cc         1 HQR       0.282600
      3 C03         -9.0740    22.4660   -12.3330 cd         1 HQR      -0.325600
      4 N04         -8.7320    21.4880   -11.4430 na         1 HQR      -0.169900
      5 C05         -7.4660    21.4940   -10.7300 c3         1 HQR       0.049300
      6 C06         -6.2990    21.0410   -11.6110 c3         1 HQR      -0.058200
      7 C07         -6.4280    19.6360   -12.1050 c2         1 HQR      -0.130200
      8 C08         -5.5660    18.6610   -11.8390 c2         1 HQR      -0.238000
      9 C09         -9.7010    20.5320   -11.5060 cd         1 HQR       0.370000
     10 C10         -9.7570    19.2530   -10.6850 c          1 HQR       0.848100
     11 O11         -8.9730    19.1610    -9.7210 o          1 HQR      -0.804300
     12 O12        -10.5990    18.4220   -11.0590 o          1 HQR      -0.804300
     13 N13        -10.6280    20.8780   -12.3770 nc         1 HQR      -0.679000
     14 H1         -11.2000    22.1950   -14.8220 hc         1 HQR       0.021700
     15 H2         -12.0660    23.0340   -13.5460 hc         1 HQR       0.021700
     16 H3         -10.5920    23.7310   -14.2110 hc         1 HQR       0.021700
     17 H4          -8.4590    23.3390   -12.4840 h4         1 HQR       0.141000
     18 H5          -7.2830    22.5150   -10.3930 h1         1 HQR       0.070700
     19 H6          -7.5590    20.8590    -9.8580 h1         1 HQR       0.070700
     20 H7          -5.3790    21.1520   -11.0330 hc         1 HQR       0.032200
     21 H8          -6.2200    21.7230   -12.4640 hc         1 HQR       0.032200
     22 H9          -7.2880    19.4180   -12.7300 ha         1 HQR       0.141000
     23 H10         -5.7050    17.6600   -12.2260 ha         1 HQR       0.099000
     24 H11         -4.6890    18.8280   -11.2230 ha         1 HQR       0.099000
@<TRIPOS>BOND
     1     1     2 1   
     2     1    14 1   
     3     1    15 1   
     4     1    16 1   
     5     2     3 2   
     6     2    13 1   
     7     3     4 1   
     8     3    17 1   
     9     4     5 1   
    10     4     9 1   
    11     5     6 1   
    12     5    18 1   
    13     5    19 1   
    14     6     7 1   
    15     6    20 1   
    16     6    21 1   
    17     7     8 2   
    18     7    22 1   
    19     8    23 1   
    20     8    24 1   
    21     9    10 1   
    22     9    13 2   
    23    10    11 1   
    24    10    12 1   
@<TRIPOS>SUBSTRUCTURE
     1 HQR         1 TEMP              0 ****  ****    0 ROOT
