@<TRIPOS>MOLECULE
HQR
   24    24     1     0     0
SMALL
No Charge or Current Charge


@<TRIPOS>ATOM
      1 C01        -11.1240    22.8160   -13.9230 c3         1 HQR      -0.090400
      2 C02        -10.2880    22.0950   -12.9050 cc         1 HQR       0.217300
      3 C03         -9.0790    22.4720   -12.4040 cd         1 HQR      -0.293000
      4 N04         -8.7200    21.4800   -11.5070 na         1 HQR      -0.148500
      5 C05         -7.4530    21.4770   -10.7440 c3         1 HQR       0.078600
      6 C06         -6.2250    21.0670   -11.5890 c3         1 HQR      -0.058200
      7 C07         -6.3140    19.6580   -12.1440 c2         1 HQR      -0.180200
      8 C08         -5.5050    18.6430   -11.8050 c2         1 HQR      -0.338000
      9 C09         -9.7530    20.5210   -11.4960 cd         1 HQR       0.370000
     10 C10         -9.8510    19.2250   -10.6660 c          1 HQR       0.637500
     11 O11         -8.9620    18.9240    -9.8760 o          1 HQR      -0.699000
     12 O12        -10.8370    18.5010   -10.7970 o          1 HQR      -0.699000
     13 N13        -10.7020    20.9190   -12.3630 nc         1 HQR      -0.679000
     14 H1         -11.2850    22.1930   -14.8110 hc         1 HQR       0.021700
     15 H2         -12.1050    23.0800   -13.5090 hc         1 HQR       0.021700
     16 H3         -10.6350    23.7430   -14.2470 hc         1 HQR       0.021700
     17 H4          -8.4670    23.3400   -12.6160 h4         1 HQR       0.123000
     18 H5          -7.2880    22.4950   -10.3680 h1         1 HQR       0.070700
     19 H6          -7.5300    20.8310    -9.8650 h1         1 HQR       0.070700
     20 H7          -5.3300    21.1710   -10.9640 hc         1 HQR       0.032200
     21 H8          -6.1060    21.7810   -12.4130 hc         1 HQR       0.032200
     22 H9          -7.1060    19.5110   -12.8830 ha         1 HQR       0.191000
     23 H10         -5.6190    17.6520   -12.2470 ha         1 HQR       0.149000
     24 H11         -4.7040    18.7650   -11.0740 ha         1 HQR       0.149000
@<TRIPOS>BOND
     1     1     2 1   
     2     1    14 1   
     3     1    15 1   
     4     1    16 1   
     5     2     3 2   
     6     2    13 1   
     7     3     4 1   
     8     3    17 1   
     9     4     5 1   
    10     4     9 1   
    11     5     6 1   
    12     5    18 1   
    13     5    19 1   
    14     6     7 1   
    15     6    20 1   
    16     6    21 1   
    17     7     8 2   
    18     7    22 1   
    19     8    23 1   
    20     8    24 1   
    21     9    10 1   
    22     9    13 2   
    23    10    11 1   
    24    10    12 1   
@<TRIPOS>SUBSTRUCTURE
     1 HQR         1 TEMP              0 ****  ****    0 ROOT
