@<TRIPOS>MOLECULE
HQS
   37    38     1     0     0
SMALL
abcg2


@<TRIPOS>ATOM
      1 C11          3.3400     0.0170     0.7640 c3         1 HQS       0.024600
      2 C12          4.4730    -0.0170    -0.2500 c3         1 HQS       0.201800
      3 C19         -4.5630    -1.7770     0.4230 ca         1 HQS      -0.100000
      4 C20         -5.4830    -0.7600     0.2400 ca         1 HQS      -0.123000
      5 C21         -5.0650     0.4560    -0.2650 ca         1 HQS       0.179000
      6 C22         -3.7410     0.6540    -0.6160 ca         1 HQS      -0.044900
      7 C05         -0.4770    -1.4470     1.3100 cc         1 HQS       0.204700
      8 C09          0.8420    -0.8930     1.3450 cc         1 HQS       0.342300
      9 C18         -3.2270    -1.5910     0.0760 ca         1 HQS       0.290000
     10 C23         -2.8230    -0.3740    -0.4660 ca         1 HQS      -0.101000
     11 N01         -2.3280    -2.6480     0.2500 nu         1 HQS      -0.929200
     12 N03         -0.0700    -3.2980     0.0180 n2         1 HQS      -0.379700
     13 N06         -1.1800    -0.8510     2.2170 nd         1 HQS      -0.284300
     14 N08          0.8650     0.0070     2.2770 nd         1 HQS      -0.354300
     15 N13          5.4490     0.9990     0.1180 n7         1 HQS      -0.885300
     16 N17          6.9750     0.8870    -2.1310 n8         1 HQS      -1.027100
     17 O04         -0.5580    -4.2840    -0.7790 oh         1 HQS      -0.513000
     18 O07         -0.3760     0.0320     2.8030 os         1 HQS       0.121600
     19 O15          7.6650     2.0760    -0.0640 o          1 HQS      -0.527000
     20 O16          7.4710    -0.4390    -0.1050 o          1 HQS      -0.527000
     21 S10          2.1740    -1.3100     0.3240 ss         1 HQS      -0.260300
     22 S14          6.9830     0.8710    -0.4860 s6         1 HQS       1.242200
     23 BR          -3.2040     2.3070    -1.3230 br         1 HQS      -0.060100
     24 H1           3.7220    -0.1470     1.7710 h1         1 HQS       0.092200
     25 H2           2.8180     0.9740     0.7330 h1         1 HQS       0.092200
     26 H3           4.9600    -0.9920    -0.2280 h1         1 HQS       0.056700
     27 H4           4.0810     0.1390    -1.2600 h1         1 HQS       0.056700
     28 H5          -4.8870    -2.7220     0.8400 ha         1 HQS       0.129000
     29 H6          -6.5220    -0.9030     0.5040 ha         1 HQS       0.139000
     30 H7          -1.8010    -0.2290    -0.7920 ha         1 HQS       0.134000
     31 H8          -2.6470    -3.5590    -0.0440 hn         1 HQS       0.517000
     32 H9           5.0990     1.9470     0.0240 hn         1 HQS       0.475000
     33 H10          6.5630     0.0630    -2.5540 hn         1 HQS       0.472500
     34 H11          6.5970     1.7380    -2.5320 hn         1 HQS       0.472500
     35 H12          0.2100    -4.8260    -0.9880 ho         1 HQS       0.481000
     36 C02         -0.9820    -2.5110     0.4460 ce         1 HQS       0.550200
     37 F25         -5.9500     1.4440    -0.4200 f          1 HQS      -0.156000
@<TRIPOS>BOND
     1     1     2 1   
     2     1    21 1   
     3     1    24 1   
     4     1    25 1   
     5     2    15 1   
     6     2    26 1   
     7     2    27 1   
     8     3     4 ar  
     9     3     9 ar  
    10     3    28 1   
    11     4     5 ar  
    12     4    29 1   
    13     5     6 ar  
    14     5    37 1   
    15     6    10 ar  
    16     6    23 1   
    17     7     8 1   
    18     7    13 2   
    19     7    36 1   
    20     8    14 2   
    21     8    21 1   
    22     9    10 ar  
    23     9    11 1   
    24    10    30 1   
    25    11    31 1   
    26    11    36 1   
    27    12    17 1   
    28    12    36 2   
    29    13    18 1   
    30    14    18 1   
    31    15    22 1   
    32    15    32 1   
    33    16    22 1   
    34    16    33 1   
    35    16    34 1   
    36    17    35 1   
    37    19    22 2   
    38    20    22 2   
@<TRIPOS>SUBSTRUCTURE
     1 HQS         1 TEMP              0 ****  ****    0 ROOT
