@<TRIPOS>MOLECULE
HQS
   37    38     1     0     0
SMALL
No Charge or Current Charge


@<TRIPOS>ATOM
      1 C11          3.6800    -0.4830     0.8640 c3         1 HQS       0.024600
      2 C12          4.7020    -0.5540    -0.2860 c3         1 HQS       0.201800
      3 C19         -4.7820    -0.9750     0.7850 ca         1 HQS      -0.100000
      4 C20         -5.8990    -0.7380    -0.0400 ca         1 HQS      -0.123000
      5 C21         -5.7140    -0.4600    -1.4020 ca         1 HQS       0.179000
      6 C22         -4.4150    -0.4110    -1.9400 ca         1 HQS      -0.044900
      7 C05         -0.1110    -1.3430     2.0360 cc         1 HQS       0.204700
      8 C09          1.2950    -1.4450     2.0220 cc         1 HQS       0.342300
      9 C18         -3.4780    -0.9450     0.2560 ca         1 HQS       0.290000
     10 C23         -3.3030    -0.6490    -1.1120 ca         1 HQS      -0.101000
     11 N01         -2.4000    -1.1730     1.1220 nu         1 HQS      -0.929200
     12 N03         -0.6350    -2.0400    -0.2250 n2         1 HQS      -0.379700
     13 N06         -0.5210    -1.0230     3.2520 nd         1 HQS      -0.284300
     14 N08          1.8480    -1.1940     3.1810 nd         1 HQS      -0.354300
     15 N13          5.7510     0.4630    -0.0980 n7         1 HQS      -0.885300
     16 N17          7.0790     2.1660    -1.2290 n8         1 HQS      -1.027100
     17 O04         -1.2360    -3.2650    -0.6070 oh         1 HQS      -0.513000
     18 O07          0.7040    -0.9290     3.9950 os         1 HQS       0.121600
     19 O15          8.1920     0.0620    -0.6130 o          1 HQS      -0.527000
     20 O16          6.4580     0.1670    -2.5010 o          1 HQS      -0.527000
     21 S10          2.3640    -1.7690     0.6520 ss         1 HQS      -0.260300
     22 S14          6.9550     0.5670    -1.1920 s6         1 HQS       1.242200
     23 Br          -4.1410    -0.0140    -3.7950 br         1 HQS      -0.060100
     24 H1           4.1960    -0.6450     1.8180 h1         1 HQS       0.092200
     25 H2           3.2130     0.5090     0.8840 h1         1 HQS       0.092200
     26 H3           5.1420    -1.5610    -0.2980 h1         1 HQS       0.056700
     27 H4           4.1750    -0.4080    -1.2390 h1         1 HQS       0.056700
     28 H5          -4.9360    -1.1910     1.8390 ha         1 HQS       0.129000
     29 H6          -6.9030    -0.7700     0.3750 ha         1 HQS       0.139000
     30 H7          -2.3080    -0.5850    -1.5390 ha         1 HQS       0.134000
     31 H8          -2.6180    -1.0600     2.1120 hn         1 HQS       0.517000
     32 H9           5.3770     1.4030    -0.2180 hn         1 HQS       0.475000
     33 H10          7.9560     2.2870    -0.7280 hn         1 HQS       0.472500
     34 H11          7.3740     2.3110    -2.1920 hn         1 HQS       0.472500
     35 H12         -0.8220    -3.5030    -1.4720 ho         1 HQS       0.481000
     36 C02         -1.0470    -1.5370     0.9030 ce         1 HQS       0.550200
     37 F25         -6.7900    -0.2320    -2.1890 f          1 HQS      -0.156000
@<TRIPOS>BOND
     1     1     2 1   
     2     1    21 1   
     3     1    24 1   
     4     1    25 1   
     5     2    15 1   
     6     2    26 1   
     7     2    27 1   
     8     3     4 ar  
     9     3     9 ar  
    10     3    28 1   
    11     4     5 ar  
    12     4    29 1   
    13     5     6 ar  
    14     5    37 1   
    15     6    10 ar  
    16     6    23 1   
    17     7     8 1   
    18     7    13 2   
    19     7    36 1   
    20     8    14 2   
    21     8    21 1   
    22     9    10 ar  
    23     9    11 1   
    24    10    30 1   
    25    11    31 1   
    26    11    36 1   
    27    12    17 1   
    28    12    36 2   
    29    13    18 1   
    30    14    18 1   
    31    15    22 1   
    32    15    32 1   
    33    16    22 1   
    34    16    33 1   
    35    16    34 1   
    36    17    35 1   
    37    19    22 2   
    38    20    22 2   
@<TRIPOS>SUBSTRUCTURE
     1 HQS         1 TEMP              0 ****  ****    0 ROOT
