@<TRIPOS>MOLECULE
HQT
   19    20     1     0     0
SMALL
No Charge or Current Charge


@<TRIPOS>ATOM
      1 S1           1.7770     1.8110     0.1540 s          1 HQT      -0.610400
      2 C1           0.9790     0.3230     0.1250 cs         1 HQT       0.353000
      3 C9          -0.5330     0.2720     0.0670 ca         1 HQT      -0.112600
      4 C8          -1.3200     1.4480     0.0550 ca         1 HQT      -0.045000
      5 C7          -2.7220     1.3720    -0.0000 ca         1 HQT      -0.122000
      6 C6          -3.3570     0.1220    -0.0450 ca         1 HQT      -0.069000
      7 C5          -2.5850    -1.0490    -0.0330 ca         1 HQT      -0.120000
      8 C4          -1.1810    -0.9760     0.0220 ca         1 HQT      -0.002800
      9 C3          -0.4000    -2.2000     0.0350 cc         1 HQT      -0.217200
     10 C2           0.9760    -2.0960     0.0910 cd         1 HQT      -0.052400
     11 N1           1.6770    -0.8890     0.1330 n          1 HQT      -0.029500
     12 O1           3.1070    -0.9290     0.1940 oh         1 HQT      -0.446100
     13 H1          -0.8560     2.4310     0.0890 ha         1 HQT       0.155000
     14 H2          -3.3160     2.2830    -0.0090 ha         1 HQT       0.124000
     15 H3          -4.4420     0.0610    -0.0880 ha         1 HQT       0.120000
     16 H4          -3.0800    -2.0170    -0.0680 ha         1 HQT       0.121000
     17 H5          -0.8700    -3.1810     0.0060 ha         1 HQT       0.209000
     18 H6           1.6370    -2.9580     0.1120 h4         1 HQT       0.231000
     19 H7           3.3920    -0.8180    -0.7420 ho         1 HQT       0.516000
@<TRIPOS>BOND
     1     1     2 2   
     2     2     3 1   
     3     2    11 1   
     4     3     4 ar  
     5     3     8 ar  
     6     4     5 ar  
     7     4    13 1   
     8     5     6 ar  
     9     5    14 1   
    10     6     7 ar  
    11     6    15 1   
    12     7     8 ar  
    13     7    16 1   
    14     8     9 1   
    15     9    10 2   
    16     9    17 1   
    17    10    11 1   
    18    10    18 1   
    19    11    12 1   
    20    12    19 1   
@<TRIPOS>SUBSTRUCTURE
     1 HQT         1 TEMP              0 ****  ****    0 ROOT
