@<TRIPOS>MOLECULE
HQT
   19    20     1     0     0
SMALL
bcc


@<TRIPOS>ATOM
      1 S1           1.8900     1.6410    -0.1030 s          1 HQT      -0.610400
      2 C1           0.9420     0.2490    -0.0360 cs         1 HQT       0.420000
      3 C9          -0.4990     0.2090    -0.0170 ca         1 HQT      -0.112600
      4 C8          -1.2450     1.4000    -0.0540 ca         1 HQT      -0.063000
      5 C7          -2.6170     1.3600    -0.0380 ca         1 HQT      -0.140000
      6 C6          -3.2900     0.1290     0.0180 ca         1 HQT      -0.087000
      7 C5          -2.5820    -1.0460     0.0560 ca         1 HQT      -0.138000
      8 C4          -1.1760    -1.0290     0.0380 ca         1 HQT      -0.002800
      9 C3          -0.4140    -2.2290     0.0760 cc         1 HQT      -0.167200
     10 C2           0.9310    -2.1630     0.0570 cd         1 HQT      -0.002400
     11 N1           1.5540    -0.9510     0.0020 n          1 HQT      -0.096500
     12 O1           2.9030    -1.0150    -0.0130 oh         1 HQT      -0.407100
     13 H1          -0.7250     2.3470    -0.0980 ha         1 HQT       0.173000
     14 H2          -3.1840     2.2810    -0.0680 ha         1 HQT       0.142000
     15 H3          -4.3720     0.1090     0.0310 ha         1 HQT       0.138000
     16 H4          -3.0970    -1.9970     0.1000 ha         1 HQT       0.139000
     17 H5          -0.8980    -3.1930     0.1230 ha         1 HQT       0.159000
     18 H6           1.5810    -3.0240     0.0820 h4         1 HQT       0.181000
     19 H7           3.1820    -0.0680    -0.0560 ho         1 HQT       0.477000
@<TRIPOS>BOND
     1     1     2 2   
     2     2     3 1   
     3     2    11 1   
     4     3     4 ar  
     5     3     8 ar  
     6     4     5 ar  
     7     4    13 1   
     8     5     6 ar  
     9     5    14 1   
    10     6     7 ar  
    11     6    15 1   
    12     7     8 ar  
    13     7    16 1   
    14     8     9 1   
    15     9    10 2   
    16     9    17 1   
    17    10    11 1   
    18    10    18 1   
    19    11    12 1   
    20    12    19 1   
@<TRIPOS>SUBSTRUCTURE
     1 HQT         1 TEMP              0 ****  ****    0 ROOT
