@<TRIPOS>MOLECULE
HQU
   20    21     1     0     0
SMALL
bcc


@<TRIPOS>ATOM
      1 N1           0.9990    -0.0190     0.1470 nb         1 HQU      -0.609000
      2 C2           0.1100    -0.0610     1.1020 ca         1 HQU       0.278800
      3 C3          -1.3010    -0.0990     0.8430 ca         1 HQU       0.108800
      4 C4          -1.7210    -0.0920    -0.4660 ca         1 HQU      -0.242000
      5 C5          -1.1210    -0.0350    -2.8720 ca         1 HQU      -0.135000
      6 C6          -0.1500     0.0130    -3.8340 ca         1 HQU      -0.137000
      7 C7           1.2160     0.0500    -3.4770 ca         1 HQU      -0.179000
      8 C8           1.5840     0.0390    -2.1600 ca         1 HQU      -0.137300
      9 C9           0.6020    -0.0100    -1.1410 ca         1 HQU       0.338600
     10 C10         -0.7700    -0.0460    -1.5000 ca         1 HQU      -0.093300
     11 C            0.6080    -0.0680     2.5410 c          1 HQU       0.828100
     12 O1          -0.3050    -0.0980     3.4230 o          1 HQU      -0.775800
     13 O2           1.8170    -0.0430     2.7530 o          1 HQU      -0.775800
     14 O3          -2.1690    -0.1390     1.8470 oh         1 HQU      -0.580100
     15 H4          -2.7800    -0.1200    -0.6990 ha         1 HQU       0.127000
     16 H5          -2.1680    -0.0630    -3.1480 ha         1 HQU       0.115000
     17 H6          -0.4260     0.0220    -4.8810 ha         1 HQU       0.107000
     18 H7           1.9700     0.0880    -4.2520 ha         1 HQU       0.111000
     19 H8           2.6270     0.0670    -1.8690 ha         1 HQU       0.137000
     20 HO3         -1.5720    -0.1300     2.6830 ho         1 HQU       0.512000
@<TRIPOS>BOND
     1     1     2 ar  
     2     1     9 ar  
     3     2     3 ar  
     4     2    11 1   
     5     3     4 ar  
     6     3    14 1   
     7     4    10 ar  
     8     4    15 1   
     9     5     6 ar  
    10     5    10 ar  
    11     5    16 1   
    12     6     7 ar  
    13     6    17 1   
    14     7     8 ar  
    15     7    18 1   
    16     8     9 ar  
    17     8    19 1   
    18     9    10 ar  
    19    11    12 1   
    20    11    13 1   
    21    14    20 1   
@<TRIPOS>SUBSTRUCTURE
     1 HQU         1 TEMP              0 ****  ****    0 ROOT
