@<TRIPOS>MOLECULE
HQU
   20    21     1     0     0
SMALL
No Charge or Current Charge


@<TRIPOS>ATOM
      1 N1           1.0590    -0.0150     0.1380 nb         1 HQU      -0.609000
      2 C2           0.1240    -0.0590     1.1450 ca         1 HQU       0.213500
      3 C3          -1.2740    -0.0970     0.8510 ca         1 HQU       0.174100
      4 C4          -1.6960    -0.0890    -0.4850 ca         1 HQU      -0.224000
      5 C5          -1.1250    -0.0330    -2.8520 ca         1 HQU      -0.117000
      6 C6          -0.1600     0.0120    -3.8710 ca         1 HQU      -0.119000
      7 C7           1.2040     0.0490    -3.5400 ca         1 HQU      -0.161000
      8 C8           1.6020     0.0390    -2.1910 ca         1 HQU      -0.054000
      9 C9           0.6490    -0.0060    -1.1530 ca         1 HQU       0.208000
     10 C10         -0.7270    -0.0430    -1.5020 ca         1 HQU      -0.028000
     11 C            0.5960    -0.0690     2.6200 c          1 HQU       0.617500
     12 O1          -0.2560    -0.1090     3.5050 o          1 HQU      -0.670500
     13 O2           1.7960    -0.0360     2.8710 o          1 HQU      -0.670500
     14 O3          -2.2290    -0.1420     1.8320 oh         1 HQU      -0.619100
     15 H4          -2.7560    -0.1170    -0.7260 ha         1 HQU       0.109000
     16 H5          -2.1800    -0.0610    -3.1130 ha         1 HQU       0.097000
     17 H6          -0.4690     0.0200    -4.9140 ha         1 HQU       0.089000
     18 H7           1.9530     0.0840    -4.3270 ha         1 HQU       0.093000
     19 H8           2.6600     0.0670    -1.9450 ha         1 HQU       0.119000
     20 HO3         -1.7250    -0.1400     2.6970 ho         1 HQU       0.551000
@<TRIPOS>BOND
     1     1     2 ar  
     2     1     9 ar  
     3     2     3 ar  
     4     2    11 1   
     5     3     4 ar  
     6     3    14 1   
     7     4    10 ar  
     8     4    15 1   
     9     5     6 ar  
    10     5    10 ar  
    11     5    16 1   
    12     6     7 ar  
    13     6    17 1   
    14     7     8 ar  
    15     7    18 1   
    16     8     9 ar  
    17     8    19 1   
    18     9    10 ar  
    19    11    12 1   
    20    11    13 1   
    21    14    20 1   
@<TRIPOS>SUBSTRUCTURE
     1 HQU         1 TEMP              0 ****  ****    0 ROOT
