@<TRIPOS>MOLECULE
HQV
   68    70     1     0     0
SMALL
bcc


@<TRIPOS>ATOM
      1 C15         -1.9400    -1.3330     0.4030 c3         1 HQV       0.210400
      2 C17         -3.9340    -1.2810     1.9660 c5         1 HQV       0.059100
      3 C21         -4.9900     0.4440     0.7330 c5         1 HQV       0.312500
      4 C24         -6.1940    -1.5560    -2.1950 cc         1 HQV      -0.363200
      5 C02          3.6540     1.6820     1.6480 c6         1 HQV       0.140100
      6 C03          4.0240     3.1670     1.7100 c6         1 HQV       0.112100
      7 C05          3.6610     3.9130     0.4260 c6         1 HQV       0.018400
      8 C06          3.8800     5.4120     0.5020 c3         1 HQV       0.143400
      9 C09          4.1130     1.5260    -0.8550 c6         1 HQV       0.318200
     10 C16         -2.8970    -0.4750     1.1920 c5         1 HQV       0.130100
     11 C19         -5.0890    -0.2790     2.0770 c5         1 HQV       0.071100
     12 C23         -5.4030    -1.0020    -1.2600 cd         1 HQV       0.083600
     13 C25         -7.6050    -1.2660    -2.2020 c          1 HQV       0.735700
     14 C27         -7.2060     0.1610    -0.2190 c          1 HQV       0.818500
     15 C35          4.3920     0.9380     0.5350 c6         1 HQV       0.112700
     16 C38          4.2500    -2.7670     0.0920 ce         1 HQV      -0.155200
     17 C39          4.9770    -3.8660    -0.0990 c2         1 HQV      -0.173200
     18 C40          4.4270    -5.2460    -0.1930 c3         1 HQV      -0.045900
     19 N22         -5.8690    -0.1710    -0.2870 n          1 HQV      -0.396000
     20 N26         -7.9930    -0.4060    -1.1850 ns         1 HQV      -0.607500
     21 N36          4.0250    -0.4530     0.5520 ns         1 HQV      -0.543900
     22 O01          3.9940     1.0520     2.8590 oh         1 HQV      -0.587800
     23 O04          3.3170     3.6970     2.8160 oh         1 HQV      -0.616800
     24 O07          5.2360     5.6690     0.7730 oh         1 HQV      -0.591800
     25 O10          2.7520     1.4090    -1.1530 os         1 HQV      -0.561200
     26 O12          0.7640     0.0770    -1.7500 os         1 HQV      -0.688800
     27 O14         -1.0600    -0.5020    -0.3210 os         1 HQV      -0.535200
     28 O20         -4.8380     0.6610     3.0860 oh         1 HQV      -0.582800
     29 O29         -8.4250    -1.6950    -2.9940 o          1 HQV      -0.636500
     30 O30         -3.6630     0.3560     0.3190 os         1 HQV      -0.359600
     31 O31          0.3090    -2.4300    -1.3230 o          1 HQV      -0.854000
     32 O32          1.2880    -0.9460     0.5700 o          1 HQV      -0.854000
     33 O33          3.0920    -0.7560    -2.5030 o          1 HQV      -0.835000
     34 O34          1.9360     1.3170    -3.5810 o          1 HQV      -0.835000
     35 O41          6.0680    -1.2340    -0.0460 o          1 HQV      -0.689100
     36 P11          2.2260     0.4560    -2.3960 p5         1 HQV       1.453800
     37 P13          0.4350    -1.0980    -0.6610 p5         1 HQV       1.478800
     38 S08          4.6530     3.2530    -0.9510 ss         1 HQV      -0.401200
     39 H152        -1.4160    -1.9750     1.1210 h1         1 HQV       0.020200
     40 H151        -2.4930    -1.9960    -0.2740 h1         1 HQV       0.020200
     41 H171        -4.2600    -2.1440     1.3680 h1         1 HQV       0.048700
     42 H211        -5.2890     1.4900     0.8190 h2         1 HQV       0.114700
     43 H241        -5.7760    -2.2060    -2.9470 ha         1 HQV       0.177000
     44 H021         2.5710     1.6050     1.4640 h1         1 HQV       0.093700
     45 H031         5.1070     3.2460     1.8700 h1         1 HQV       0.051700
     46 H051         2.6030     3.7590     0.1920 h1         1 HQV       0.111700
     47 H062         3.2210     5.8180     1.2790 h1         1 HQV       0.020700
     48 H091         4.7430     0.9990    -1.5790 h2         1 HQV       0.089700
     49 H161        -2.3280     0.1580     1.8830 h1         1 HQV       0.096700
     50 H191        -6.0570    -0.7730     2.2140 h1         1 HQV       0.052700
     51 H231        -4.3420    -1.1950    -1.2550 h4         1 HQV       0.203000
     52 H351         5.4670     1.0200     0.7130 h1         1 HQV       0.068700
     53 H381         3.1710    -2.8310     0.1890 ha         1 HQV       0.167000
     54 H391         6.0540    -3.7680    -0.1960 ha         1 HQV       0.115000
     55 H1           4.8560    -5.8880     0.5790 hc         1 HQV       0.024367
     56 H2           3.3420    -5.2660    -0.0910 hc         1 HQV       0.024367
     57 H3           4.6900    -5.7000    -1.1510 hc         1 HQV       0.024367
     58 H261        -8.9750    -0.1620    -1.1390 hn         1 HQV       0.326500
     59 H361         3.0190    -0.6670     0.5780 hn         1 HQV       0.403500
     60 H011         3.6020     1.5730     3.5680 ho         1 HQV       0.392000
     61 H041         3.8270     4.4180     3.1950 ho         1 HQV       0.388000
     62 H071         5.3560     6.6210     0.8330 ho         1 HQV       0.380000
     63 H201        -4.3920     0.2030     3.8090 ho         1 HQV       0.421000
     64 O18         -3.4150    -1.6830     3.2010 oh         1 HQV      -0.572800
     65 C37          4.8730    -1.4230     0.1770 c          1 HQV       0.682300
     66 H181        -3.9500    -2.4070     3.5440 ho         1 HQV       0.400000
     67 O28         -7.6500     0.9000     0.6360 o          1 HQV      -0.651500
     68 H061         3.5610     5.8630    -0.4460 h1         1 HQV       0.020700
@<TRIPOS>BOND
     1     1    10 1   
     2     1    27 1   
     3     1    39 1   
     4     1    40 1   
     5     2    10 1   
     6     2    11 1   
     7     2    41 1   
     8     2    64 1   
     9     3    11 1   
    10     3    19 1   
    11     3    30 1   
    12     3    42 1   
    13     4    12 2   
    14     4    13 1   
    15     4    43 1   
    16     5     6 1   
    17     5    15 1   
    18     5    22 1   
    19     5    44 1   
    20     6     7 1   
    21     6    23 1   
    22     6    45 1   
    23     7     8 1   
    24     7    38 1   
    25     7    46 1   
    26     8    24 1   
    27     8    47 1   
    28     8    68 1   
    29     9    15 1   
    30     9    25 1   
    31     9    38 1   
    32     9    48 1   
    33    10    30 1   
    34    10    49 1   
    35    11    28 1   
    36    11    50 1   
    37    12    19 1   
    38    12    51 1   
    39    13    20 1   
    40    13    29 2   
    41    14    19 1   
    42    14    20 1   
    43    14    67 2   
    44    15    21 1   
    45    15    52 1   
    46    16    17 2   
    47    16    53 1   
    48    16    65 1   
    49    17    18 1   
    50    17    54 1   
    51    18    55 1   
    52    18    56 1   
    53    18    57 1   
    54    20    58 1   
    55    21    59 1   
    56    21    65 1   
    57    22    60 1   
    58    23    61 1   
    59    24    62 1   
    60    25    36 1   
    61    26    36 1   
    62    26    37 1   
    63    27    37 1   
    64    28    63 1   
    65    31    37 1   
    66    32    37 1   
    67    33    36 1   
    68    34    36 1   
    69    35    65 2   
    70    64    66 1   
@<TRIPOS>SUBSTRUCTURE
     1 HQV         1 TEMP              0 ****  ****    0 ROOT
