@<TRIPOS>MOLECULE
HQV
   68    70     1     0     0
SMALL
No Charge or Current Charge


@<TRIPOS>ATOM
      1 C15         -1.1120    -0.9080    -1.0390 c3         1 HQV       0.233600
      2 C17         -2.2010     0.9680     0.4600 c5         1 HQV       0.082300
      3 C21         -4.4160     0.6800    -0.5190 c5         1 HQV       0.335700
      4 C24         -6.0470    -1.5720     2.0180 cc         1 HQV      -0.413200
      5 C02          1.8720     0.3230     1.2810 c6         1 HQV       0.163300
      6 C03          1.7600     1.4560     2.3470 c6         1 HQV       0.135300
      7 C05          2.2250     2.8400     1.7890 c6         1 HQV       0.066300
      8 C06          2.0310     4.0080     2.8080 c3         1 HQV       0.166600
      9 C09          3.8380     1.4020     0.0030 c6         1 HQV       0.389300
     10 C16         -2.1560     0.2360    -0.9170 c5         1 HQV       0.153300
     11 C19         -3.5740     1.6970     0.3440 c5         1 HQV       0.094300
     12 C23         -5.0850    -1.0300     1.1960 cd         1 HQV       0.033600
     13 C25         -7.4090    -1.0550     2.0590 c          1 HQV       0.593200
     14 C27         -6.7270     0.5830     0.3810 c          1 HQV       0.609000
     15 C35          3.3320     0.1270     0.7700 c6         1 HQV       0.112700
     16 C38          4.7060    -3.0660    -0.8570 ce         1 HQV      -0.205200
     17 C39          5.6930    -3.9950    -0.8430 c2         1 HQV      -0.223200
     18 C40          5.6620    -5.3130    -1.5830 c3         1 HQV      -0.045900
     19 N22         -5.4220     0.0540     0.3820 n          1 HQV      -0.329000
     20 N26         -7.6170    -0.0110     1.2200 ns         1 HQV      -0.473500
     21 N36          3.5380    -1.1410     0.0340 ns         1 HQV      -0.476900
     22 O01          1.3640    -0.8960     1.8560 oh         1 HQV      -0.650000
     23 O04          0.3950     1.5190     2.8140 oh         1 HQV      -0.679000
     24 O07          2.6890     3.7780     4.0640 oh         1 HQV      -0.654000
     25 O10          3.0060     1.8990    -1.0600 os         1 HQV      -0.584400
     26 O12          1.3490     0.4630    -1.9740 os         1 HQV      -0.688800
     27 O14         -0.5680    -0.8920    -2.3660 os         1 HQV      -0.558400
     28 O20         -3.3440     2.9450    -0.3220 oh         1 HQV      -0.705000
     29 O29         -8.2900    -1.5050     2.7690 o          1 HQV      -0.561000
     30 O30         -3.4890    -0.3100    -1.0210 os         1 HQV      -0.406000
     31 O31          1.3160    -1.0840    -4.0320 o          1 HQV      -0.854000
     32 O32          1.6120    -2.0410    -1.7460 o          1 HQV      -0.854000
     33 O33          3.8390     0.0830    -2.6280 o          1 HQV      -0.835000
     34 O34          2.5810     2.0020    -3.5550 o          1 HQV      -0.835000
     35 O41          5.7490    -1.3710     0.4680 o          1 HQV      -0.689100
     36 P11          2.7370     1.0610    -2.4070 p5         1 HQV       1.453800
     37 P13          1.0260    -0.9490    -2.5740 p5         1 HQV       1.478800
     38 S08          3.9890     2.8120     1.1830 ss         1 HQV      -0.497000
     39 H152        -0.3290    -0.7570    -0.2880 h1         1 HQV       0.020200
     40 H151        -1.5900    -1.8730    -0.8290 h1         1 HQV       0.020200
     41 H171        -2.2090     0.2430     1.2860 h1         1 HQV       0.048700
     42 H211        -4.9360     1.1830    -1.3450 h2         1 HQV       0.114700
     43 H241        -5.8430    -2.4130     2.6710 ha         1 HQV       0.227000
     44 H021         1.2430     0.6160     0.4310 h1         1 HQV       0.093700
     45 H031         2.4210     1.1920     3.1860 h1         1 HQV       0.051700
     46 H051         1.6010     3.0780     0.9150 h1         1 HQV       0.111700
     47 H062         0.9560     4.1540     2.9720 h1         1 HQV       0.020700
     48 H091         4.8510     1.2090    -0.3830 h2         1 HQV       0.089700
     49 H161        -1.9960     0.9560    -1.7320 h1         1 HQV       0.096700
     50 H191        -4.0200     1.8700     1.3340 h1         1 HQV       0.052700
     51 H231        -4.0580    -1.3830     1.1190 h4         1 HQV       0.253000
     52 H351         3.9590     0.0470     1.6700 h1         1 HQV       0.068700
     53 H381         3.7900    -3.2570    -1.4110 ha         1 HQV       0.217000
     54 H391         6.6030    -3.8250    -0.2640 ha         1 HQV       0.165000
     55 H1           6.5810    -5.8850    -1.4110 hc         1 HQV       0.024367
     56 H2           4.8170    -5.9300    -1.2540 hc         1 HQV       0.024367
     57 H3           5.5630    -5.1550    -2.6640 hc         1 HQV       0.024367
     58 H261        -8.5480     0.3730     1.2160 hn         1 HQV       0.326500
     59 H361         2.7500    -1.5520    -0.4740 hn         1 HQV       0.403500
     60 H011         0.6790    -0.6010     2.4970 ho         1 HQV       0.431000
     61 H041         0.4270     1.9310     3.7080 ho         1 HQV       0.427000
     62 H071         2.6260     4.6130     4.5770 ho         1 HQV       0.419000
     63 H201        -2.3720     3.0790    -0.1610 ho         1 HQV       0.520000
     64 O18         -1.1460     1.9310     0.6360 oh         1 HQV      -0.695000
     65 C37          4.7390    -1.7900    -0.0840 c          1 HQV       0.615300
     66 H181        -0.6690     1.7170     1.4880 ho         1 HQV       0.499000
     67 O28         -7.0690     1.5220    -0.3180 o          1 HQV      -0.576000
     68 H061         2.4120     4.9300     2.3480 h1         1 HQV       0.020700
@<TRIPOS>BOND
     1     1    10 1   
     2     1    27 1   
     3     1    39 1   
     4     1    40 1   
     5     2    10 1   
     6     2    11 1   
     7     2    41 1   
     8     2    64 1   
     9     3    11 1   
    10     3    19 1   
    11     3    30 1   
    12     3    42 1   
    13     4    12 2   
    14     4    13 1   
    15     4    43 1   
    16     5     6 1   
    17     5    15 1   
    18     5    22 1   
    19     5    44 1   
    20     6     7 1   
    21     6    23 1   
    22     6    45 1   
    23     7     8 1   
    24     7    38 1   
    25     7    46 1   
    26     8    24 1   
    27     8    47 1   
    28     8    68 1   
    29     9    15 1   
    30     9    25 1   
    31     9    38 1   
    32     9    48 1   
    33    10    30 1   
    34    10    49 1   
    35    11    28 1   
    36    11    50 1   
    37    12    19 1   
    38    12    51 1   
    39    13    20 1   
    40    13    29 2   
    41    14    19 1   
    42    14    20 1   
    43    14    67 2   
    44    15    21 1   
    45    15    52 1   
    46    16    17 2   
    47    16    53 1   
    48    16    65 1   
    49    17    18 1   
    50    17    54 1   
    51    18    55 1   
    52    18    56 1   
    53    18    57 1   
    54    20    58 1   
    55    21    59 1   
    56    21    65 1   
    57    22    60 1   
    58    23    61 1   
    59    24    62 1   
    60    25    36 1   
    61    26    36 1   
    62    26    37 1   
    63    27    37 1   
    64    28    63 1   
    65    31    37 1   
    66    32    37 1   
    67    33    36 1   
    68    34    36 1   
    69    35    65 2   
    70    64    66 1   
@<TRIPOS>SUBSTRUCTURE
     1 HQV         1 TEMP              0 ****  ****    0 ROOT
