@<TRIPOS>MOLECULE
HQW
   52    54     1     0     0
SMALL
No Charge or Current Charge


@<TRIPOS>ATOM
      1 C12         11.6220   -11.4290   302.5930 c3         1 HQW      -0.032900
      2 C13         13.7570    -7.8960   301.2070 cc         1 HQW       0.324200
      3 C9          11.7390    -8.9100   302.1910 c          1 HQW       0.590500
      4 C3          14.3710   -12.1890   300.1590 c5         1 HQW      -0.073200
      5 C7          12.4300   -10.2240   302.1250 cc         1 HQW      -0.230400
      6 C11         12.4790    -7.7310   301.6870 cd         1 HQW      -0.326400
      7 C14         17.7990   -10.2690   297.7270 ce         1 HQW      -0.188200
      8 C10         16.4590   -10.2200   297.4680 cf         1 HQW      -0.039200
      9 C6          13.7350   -10.2670   301.6590 cd         1 HQW       0.085900
     10 C4          15.4880   -11.4450   299.4600 c2         1 HQW      -0.132400
     11 C5          16.5090   -11.1140   300.5460 c5         1 HQW       0.187800
     12 C2          14.4520   -11.6260   301.5970 c5         1 HQW       0.223500
     13 C15         15.8660    -9.2420   296.4670 c3         1 HQW      -0.067900
     14 C16         11.7290    -6.4070   301.7270 c3         1 HQW      -0.011900
     15 C17         18.9120    -9.4790   297.1330 ca         1 HQW      -0.000800
     16 C18         19.0080    -9.2760   295.7440 ca         1 HQW      -0.120000
     17 C19         19.9080    -8.9530   297.9730 ca         1 HQW      -0.120000
     18 C20         15.6740    -6.9720   300.0550 c3         1 HQW       0.155900
     19 C21         20.0740    -8.5370   295.2010 ca         1 HQW      -0.043000
     20 C22         20.9770    -8.2120   297.4400 ca         1 HQW      -0.043000
     21 C23         21.0700    -7.9930   296.0460 ca         1 HQW      -0.180200
     22 N1          22.2070    -7.2040   295.4720 no         1 HQW       0.694200
     23 O24         15.8810   -11.4820   301.8020 os         1 HQW      -0.441000
     24 O25         14.3570    -9.1220   301.2440 os         1 HQW      -0.248200
     25 O27         10.6010    -8.7910   302.6330 o          1 HQW      -0.559100
     26 O28         22.2460    -7.0390   294.2450 o          1 HQW      -0.398000
     27 O29         23.0570    -6.7500   296.2500 o          1 HQW      -0.398000
     28 H1          11.8990   -11.7080   303.6170 hc         1 HQW       0.049700
     29 H2          10.5400   -11.2550   302.5800 hc         1 HQW       0.049700
     30 H3          11.7910   -12.3000   301.9490 hc         1 HQW       0.049700
     31 H4          14.5840   -11.3020   297.5750 ha         1 HQW       0.185000
     32 H5          13.3920   -12.0180   299.6960 hc         1 HQW       0.075200
     33 H6          14.5550   -13.2690   300.1480 hc         1 HQW       0.075200
     34 H7          18.1510   -10.9830   298.4670 ha         1 HQW       0.184000
     35 H8          17.4400   -11.6870   300.4410 h1         1 HQW       0.058200
     36 H9          16.7560   -10.0440   300.5630 h1         1 HQW       0.058200
     37 H10         14.0520   -12.3160   302.3500 h1         1 HQW       0.097700
     38 H11         14.8340    -8.9760   296.7260 hc         1 HQW       0.050700
     39 H12         16.4330    -8.3040   296.4310 hc         1 HQW       0.050700
     40 H13         15.8510    -9.6680   295.4580 hc         1 HQW       0.050700
     41 H14         11.4110    -6.1650   302.7490 hc         1 HQW       0.043700
     42 H15         12.3350    -5.5650   301.3740 hc         1 HQW       0.043700
     43 H16         10.8310    -6.4450   301.0980 hc         1 HQW       0.043700
     44 H17         18.2630    -9.7020   295.0770 ha         1 HQW       0.128000
     45 H18         19.8500    -9.1130   299.0470 ha         1 HQW       0.128000
     46 H19         16.0490    -6.0080   299.6890 h1         1 HQW       0.053033
     47 H20         16.4130    -7.3840   300.7540 h1         1 HQW       0.053033
     48 H21         15.5870    -7.6530   299.2000 h1         1 HQW       0.053033
     49 H22         20.1190    -8.3960   294.1220 ha         1 HQW       0.152500
     50 H23         21.7290    -7.8120   298.1190 ha         1 HQW       0.152500
     51 O26         14.4010    -6.8010   300.7020 os         1 HQW      -0.319100
     52 C8          15.4670   -11.0430   298.1640 cf         1 HQW      -0.175000
@<TRIPOS>BOND
     1     1     5 1   
     2     1    28 1   
     3     1    29 1   
     4     1    30 1   
     5     2     6 2   
     6     2    24 1   
     7     2    51 1   
     8     3     5 1   
     9     3     6 1   
    10     3    25 2   
    11     4    10 1   
    12     4    12 1   
    13     4    32 1   
    14     4    33 1   
    15     5     9 2   
    16     6    14 1   
    17     7     8 2   
    18     7    15 1   
    19     7    34 1   
    20     8    13 1   
    21     8    52 1   
    22     9    12 1   
    23     9    24 1   
    24    10    11 1   
    25    10    52 2   
    26    11    23 1   
    27    11    35 1   
    28    11    36 1   
    29    12    23 1   
    30    12    37 1   
    31    13    38 1   
    32    13    39 1   
    33    13    40 1   
    34    14    41 1   
    35    14    42 1   
    36    14    43 1   
    37    15    16 ar  
    38    15    17 ar  
    39    16    19 ar  
    40    16    44 1   
    41    17    20 ar  
    42    17    45 1   
    43    18    46 1   
    44    18    47 1   
    45    18    48 1   
    46    18    51 1   
    47    19    21 ar  
    48    19    49 1   
    49    20    21 ar  
    50    20    50 1   
    51    21    22 1   
    52    22    26 1   
    53    22    27 1   
    54    31    52 1   
@<TRIPOS>SUBSTRUCTURE
     1 HQW         1 TEMP              0 ****  ****    0 ROOT
