@<TRIPOS>MOLECULE
HQW
   52    54     1     0     0
SMALL
bcc


@<TRIPOS>ATOM
      1 C12         11.7660   -11.3490   303.0100 c3         1 HQW      -0.032900
      2 C13         13.6010    -8.0410   301.1090 cc         1 HQW       0.324200
      3 C9          11.7690    -8.8980   302.4010 c          1 HQW       0.590500
      4 C3          14.3360   -12.0420   299.9980 c5         1 HQW      -0.073200
      5 C7          12.4490   -10.2020   302.3370 cc         1 HQW      -0.230400
      6 C11         12.4250    -7.7970   301.7400 cd         1 HQW      -0.326400
      7 C14         17.7730   -10.1850   297.6920 ce         1 HQW      -0.138200
      8 C10         16.4700   -10.1040   297.3640 cf         1 HQW      -0.039200
      9 C6          13.6150   -10.3050   301.6780 cd         1 HQW       0.085900
     10 C4          15.4560   -11.3070   299.3300 c2         1 HQW      -0.132400
     11 C5          16.4770   -11.0560   300.3980 c5         1 HQW       0.164600
     12 C2          14.4440   -11.5370   301.4420 c5         1 HQW       0.200300
     13 C15         15.9130    -9.1980   296.3020 c3         1 HQW      -0.067900
     14 C16         11.8280    -6.4230   301.7440 c3         1 HQW      -0.011900
     15 C17         18.8920    -9.4310   297.1280 ca         1 HQW      -0.000800
     16 C18         18.9980    -9.1020   295.7720 ca         1 HQW      -0.138000
     17 C19         19.9360    -9.0530   297.9810 ca         1 HQW      -0.138000
     18 C20         15.5130    -7.3580   299.8530 c3         1 HQW       0.132700
     19 C21         20.0790    -8.3860   295.2930 ca         1 HQW      -0.061000
     20 C22         21.0190    -8.3310   297.5210 ca         1 HQW      -0.061000
     21 C23         21.0760    -7.9950   296.1750 ca         1 HQW      -0.180200
     22 N1          22.2050    -7.2330   295.6780 no         1 HQW       0.314200
     23 O24         15.8160   -11.2640   301.6390 os         1 HQW      -0.394600
     24 O25         14.1790    -9.2320   301.0740 os         1 HQW      -0.248200
     25 O27         10.6970    -8.7810   302.9940 o          1 HQW      -0.559100
     26 O28         22.2370    -6.9610   294.5000 o          1 HQW      -0.208000
     27 O29         23.0600    -6.9010   296.4670 o          1 HQW      -0.208000
     28 H1          11.5110   -11.0910   304.0380 hc         1 HQW       0.049700
     29 H2          10.8320   -11.5910   302.5020 hc         1 HQW       0.049700
     30 H3          12.3680   -12.2530   303.0340 hc         1 HQW       0.049700
     31 H4          14.5610   -11.1110   297.4750 ha         1 HQW       0.135000
     32 H5          13.3620   -11.8670   299.5420 hc         1 HQW       0.075200
     33 H6          14.5240   -13.1200   299.9840 hc         1 HQW       0.075200
     34 H7          18.0630   -10.8780   298.4730 ha         1 HQW       0.134000
     35 H8          17.3190   -11.7540   300.3320 h1         1 HQW       0.058200
     36 H9          16.8880   -10.0410   300.3430 h1         1 HQW       0.058200
     37 H10         14.1450   -12.3070   302.1540 h1         1 HQW       0.097700
     38 H11         14.9220    -8.8430   296.5850 hc         1 HQW       0.050700
     39 H12         16.5370    -8.3260   296.1200 hc         1 HQW       0.050700
     40 H13         15.7980    -9.7300   295.3540 hc         1 HQW       0.050700
     41 H14         10.9140    -6.4180   302.3320 hc         1 HQW       0.043700
     42 H15         12.5050    -5.6860   302.1790 hc         1 HQW       0.043700
     43 H16         11.5780    -6.0810   300.7390 hc         1 HQW       0.043700
     44 H17         18.2460    -9.4320   295.0700 ha         1 HQW       0.146000
     45 H18         19.8890    -9.3180   299.0300 ha         1 HQW       0.146000
     46 H19         15.8040    -6.4240   299.3820 h1         1 HQW       0.053033
     47 H20         16.2690    -7.6400   300.5860 h1         1 HQW       0.053033
     48 H21         15.4330    -8.1340   299.0920 h1         1 HQW       0.053033
     49 H22         20.1370    -8.1490   294.2400 ha         1 HQW       0.170500
     50 H23         21.8010    -8.0390   298.2070 ha         1 HQW       0.170500
     51 O26         14.2540    -7.0930   300.4740 os         1 HQW      -0.295900
     52 C8          15.4530   -10.8970   298.0580 cf         1 HQW      -0.125000
@<TRIPOS>BOND
     1     1     5 1   
     2     1    28 1   
     3     1    29 1   
     4     1    30 1   
     5     2     6 2   
     6     2    24 1   
     7     2    51 1   
     8     3     5 1   
     9     3     6 1   
    10     3    25 2   
    11     4    10 1   
    12     4    12 1   
    13     4    32 1   
    14     4    33 1   
    15     5     9 2   
    16     6    14 1   
    17     7     8 2   
    18     7    15 1   
    19     7    34 1   
    20     8    13 1   
    21     8    52 1   
    22     9    12 1   
    23     9    24 1   
    24    10    11 1   
    25    10    52 2   
    26    11    23 1   
    27    11    35 1   
    28    11    36 1   
    29    12    23 1   
    30    12    37 1   
    31    13    38 1   
    32    13    39 1   
    33    13    40 1   
    34    14    41 1   
    35    14    42 1   
    36    14    43 1   
    37    15    16 ar  
    38    15    17 ar  
    39    16    19 ar  
    40    16    44 1   
    41    17    20 ar  
    42    17    45 1   
    43    18    46 1   
    44    18    47 1   
    45    18    48 1   
    46    18    51 1   
    47    19    21 ar  
    48    19    49 1   
    49    20    21 ar  
    50    20    50 1   
    51    21    22 1   
    52    22    26 1   
    53    22    27 1   
    54    31    52 1   
@<TRIPOS>SUBSTRUCTURE
     1 HQW         1 TEMP              0 ****  ****    0 ROOT
