@<TRIPOS>MOLECULE
HQX
   33    32     1     0     0
SMALL
bcc


@<TRIPOS>ATOM
      1 C4         -28.5920    45.4850    13.3620 c3         1 HQX      -0.090100
      2 C5         -27.0810    44.3520    11.6590 c3         1 HQX       0.035700
      3 C11        -29.5780    46.5140     6.8930 c1         1 HQX      -0.049200
      4 C7         -24.2630    44.0490     9.1500 c3         1 HQX      -0.179100
      5 C8         -28.3460    44.1210    10.8340 c          1 HQX       0.668100
      6 C9         -29.6700    44.7980     8.9180 c3         1 HQX       0.187100
      7 C10        -29.6140    45.7430     7.8130 c1         1 HQX      -0.092100
      8 N1         -25.9320    44.5910    10.8150 ns         1 HQX      -0.590900
      9 N2         -28.5060    44.9250     9.7700 ns         1 HQX      -0.573900
     10 C3         -27.2420    45.5210    12.6530 c3         1 HQX      -0.064700
     11 C1         -25.9650    46.7720    14.4900 c3         1 HQX      -0.090100
     12 C2         -26.0900    45.4980    13.6650 c3         1 HQX      -0.078400
     13 O1         -26.0430    42.5860     9.8100 o          1 HQX      -0.585100
     14 O2         -29.1780    43.2890    11.1580 o          1 HQX      -0.589100
     15 BR1        -29.5270    47.6580     5.5330 br         1 HQX      -0.012800
     16 H7         -28.6520    46.2760    14.1080 hc         1 HQX       0.044700
     17 H8         -29.4260    45.6370    12.6780 hc         1 HQX       0.044700
     18 H9         -28.7430    44.5340    13.8760 hc         1 HQX       0.044700
     19 H10        -26.9340    43.4330    12.2350 h1         1 HQX       0.096700
     20 H12        -23.5000    43.2800     9.2640 hc         1 HQX       0.062033
     21 H13        -24.5220    44.0950     8.0920 hc         1 HQX       0.062033
     22 H14        -23.8370    45.0070     9.4420 hc         1 HQX       0.062033
     23 H17        -30.5840    44.9720     9.4930 h1         1 HQX       0.076700
     24 H16        -29.7430    43.7830     8.5160 h1         1 HQX       0.076700
     25 H11        -25.4510    45.4740    10.8840 hn         1 HQX       0.317500
     26 H15        -27.7760    45.5680     9.5090 hn         1 HQX       0.323500
     27 H6         -27.1850    46.4550    12.0770 hc         1 HQX       0.043700
     28 H1         -25.1030    46.7150    15.1550 hc         1 HQX       0.034367
     29 H2         -25.8280    47.6420    13.8460 hc         1 HQX       0.034367
     30 H3         -26.8410    46.9540    15.1120 hc         1 HQX       0.034367
     31 H4         -25.1410    45.3330    13.1490 hc         1 HQX       0.043200
     32 H5         -26.2260    44.6360    14.3260 hc         1 HQX       0.043200
     33 C6         -25.4830    43.6640     9.9460 c          1 HQX       0.659100
@<TRIPOS>BOND
     1     1    10 1   
     2     1    16 1   
     3     1    17 1   
     4     1    18 1   
     5     2     5 1   
     6     2     8 1   
     7     2    10 1   
     8     2    19 1   
     9     3     7 3   
    10     3    15 1   
    11     4    20 1   
    12     4    21 1   
    13     4    22 1   
    14     4    33 1   
    15     5     9 1   
    16     5    14 2   
    17     6     7 1   
    18     6     9 1   
    19     6    23 1   
    20     6    24 1   
    21     8    25 1   
    22     8    33 1   
    23     9    26 1   
    24    10    12 1   
    25    10    27 1   
    26    11    12 1   
    27    11    28 1   
    28    11    29 1   
    29    11    30 1   
    30    12    31 1   
    31    12    32 1   
    32    13    33 2   
@<TRIPOS>SUBSTRUCTURE
     1 HQX         1 TEMP              0 ****  ****    0 ROOT
