@<TRIPOS>MOLECULE
HQX
   33    32     1     0     0
SMALL
No Charge or Current Charge


@<TRIPOS>ATOM
      1 C4         -28.5220    45.3520    13.7450 c3         1 HQX      -0.090100
      2 C5         -27.2870    44.4560    11.6430 c3         1 HQX       0.035700
      3 C11        -29.1780    46.0040     6.4000 c1         1 HQX      -0.049200
      4 C7         -24.3210    44.2790     9.1700 c3         1 HQX      -0.179100
      5 C8         -28.6430    44.3290    10.8730 c          1 HQX       0.601100
      6 C9         -29.8340    44.8550     8.7250 c3         1 HQX       0.187100
      7 C10        -29.4910    45.4850     7.4470 c1         1 HQX      -0.092100
      8 N1         -26.1680    44.7320    10.7020 ns         1 HQX      -0.523900
      9 N2         -28.6840    44.9070     9.6230 ns         1 HQX      -0.506900
     10 C3         -27.3030    45.5170    12.7960 c3         1 HQX      -0.064700
     11 C1         -25.8050    46.6430    14.6320 c3         1 HQX      -0.090100
     12 C2         -25.9580    45.5130    13.5900 c3         1 HQX      -0.078400
     13 O1         -25.7750    42.5790    10.0710 o          1 HQX      -0.585100
     14 O2         -29.5940    43.6880    11.3000 o          1 HQX      -0.589100
     15 Br1        -28.7030    46.7730     4.8520 br         1 HQX      -0.012800
     16 H7         -28.5210    46.1090    14.5360 hc         1 HQX       0.044700
     17 H8         -29.4680    45.4760    13.2050 hc         1 HQX       0.044700
     18 H9         -28.5190    44.3620    14.2170 hc         1 HQX       0.044700
     19 H10        -27.1170    43.4720    12.0990 h1         1 HQX       0.096700
     20 H12        -23.7990    43.4790     8.6340 hc         1 HQX       0.062033
     21 H13        -24.6960    45.0470     8.4850 hc         1 HQX       0.062033
     22 H14        -23.6390    44.8500     9.8110 hc         1 HQX       0.062033
     23 H17        -30.6810    45.3840     9.1820 h1         1 HQX       0.076700
     24 H16        -30.1210    43.8090     8.5530 h1         1 HQX       0.076700
     25 H11        -25.8250    45.6830    10.6170 hn         1 HQX       0.317500
     26 H15        -27.8470    45.3850     9.3150 hn         1 HQX       0.323500
     27 H6         -27.4020    46.5030    12.3240 hc         1 HQX       0.043700
     28 H1         -24.7840    46.6520    15.0310 hc         1 HQX       0.034367
     29 H2         -26.0020    47.6210    14.1780 hc         1 HQX       0.034367
     30 H3         -26.4880    46.5040    15.4780 hc         1 HQX       0.034367
     31 H4         -25.1170    45.6050    12.8930 hc         1 HQX       0.043200
     32 H5         -25.8350    44.5460    14.0930 hc         1 HQX       0.043200
     33 C6         -25.4760    43.7620    10.0140 c          1 HQX       0.592100
@<TRIPOS>BOND
     1     1    10 1   
     2     1    16 1   
     3     1    17 1   
     4     1    18 1   
     5     2     5 1   
     6     2     8 1   
     7     2    10 1   
     8     2    19 1   
     9     3     7 3   
    10     3    15 1   
    11     4    20 1   
    12     4    21 1   
    13     4    22 1   
    14     4    33 1   
    15     5     9 1   
    16     5    14 2   
    17     6     7 1   
    18     6     9 1   
    19     6    23 1   
    20     6    24 1   
    21     8    25 1   
    22     8    33 1   
    23     9    26 1   
    24    10    12 1   
    25    10    27 1   
    26    11    12 1   
    27    11    28 1   
    28    11    29 1   
    29    11    30 1   
    30    12    31 1   
    31    12    32 1   
    32    13    33 2   
@<TRIPOS>SUBSTRUCTURE
     1 HQX         1 TEMP              0 ****  ****    0 ROOT
