@<TRIPOS>MOLECULE
HQY
   18    19     1     0     0
SMALL
bcc


@<TRIPOS>ATOM
      1 OAA          1.7910     1.9690    -0.1640 oh         1 HQY      -0.487100
      2 CAD         -2.6500    -0.1200    -0.0300 ca         1 HQY      -0.242300
      3 CAE         -2.1140     1.1830    -0.1010 ca         1 HQY       0.418200
      4 CAF         -1.7960    -1.1870     0.0180 ca         1 HQY      -0.081000
      5 CAG          1.8950    -1.6700     0.0170 ca         1 HQY      -0.078000
      6 NAH         -0.8300     1.4270    -0.1220 nb         1 HQY      -0.688000
      7 CAI          0.5640    -1.9950     0.0420 ca         1 HQY      -0.158000
      8 CAJ          1.4110     0.6870    -0.0980 ca         1 HQY       0.106800
      9 CAK          2.3300    -0.3310    -0.0530 ca         1 HQY      -0.184000
     10 CAL         -0.4010    -0.9650    -0.0040 ca         1 HQY      -0.104300
     11 CAM          0.0210     0.3810    -0.0750 ca         1 HQY       0.318600
     12 HOAA         0.9830     2.5090    -0.1870 ho         1 HQY       0.457000
     13 HAE         -2.7790     2.0380    -0.1400 h4         1 HQY       0.020100
     14 HAF         -2.1760    -2.2000     0.0730 ha         1 HQY       0.139000
     15 HAG          2.6400    -2.4530     0.0510 ha         1 HQY       0.134000
     16 HAI          0.2440    -3.0270     0.0970 ha         1 HQY       0.136000
     17 HAK          3.3890    -0.1070    -0.0710 ha         1 HQY       0.150000
     18 HAD         -3.7220    -0.2560    -0.0150 ha         1 HQY       0.143000
@<TRIPOS>BOND
     1     1     8 1   
     2     1    12 1   
     3     2     3 ar  
     4     2     4 ar  
     5     2    18 1   
     6     3     6 ar  
     7     3    13 1   
     8     4    10 ar  
     9     4    14 1   
    10     5     7 ar  
    11     5     9 ar  
    12     5    15 1   
    13     6    11 ar  
    14     7    10 ar  
    15     7    16 1   
    16     8     9 ar  
    17     8    11 ar  
    18     9    17 1   
    19    10    11 ar  
@<TRIPOS>SUBSTRUCTURE
     1 HQY         1 TEMP              0 ****  ****    0 ROOT
