@<TRIPOS>MOLECULE
HQY
   18    19     1     0     0
SMALL
No Charge or Current Charge


@<TRIPOS>ATOM
      1 OAA          1.8600     1.9840    -0.1670 oh         1 HQY      -0.526100
      2 CAD         -2.6780    -0.1290    -0.0300 ca         1 HQY      -0.159000
      3 CAE         -2.1810     1.1820    -0.0990 ca         1 HQY       0.352900
      4 CAF         -1.7760    -1.2020     0.0180 ca         1 HQY      -0.063000
      5 CAG          1.9170    -1.6880     0.0180 ca         1 HQY      -0.060000
      6 NAH         -0.8560     1.4650    -0.1230 nb         1 HQY      -0.688000
      7 CAI          0.5410    -1.9690     0.0420 ca         1 HQY      -0.140000
      8 CAJ          1.4240     0.6910    -0.0990 ca         1 HQY       0.172100
      9 CAK          2.3580    -0.3560    -0.0520 ca         1 HQY      -0.166000
     10 CAL         -0.3980    -0.9200    -0.0050 ca         1 HQY      -0.039000
     11 CAM          0.0310     0.4320    -0.0760 ca         1 HQY       0.188000
     12 HOAA         1.0380     2.5280    -0.1890 ho         1 HQY       0.496000
     13 HAE         -2.8600     2.0320    -0.1380 h4         1 HQY       0.020100
     14 HAF         -2.1380    -2.2270     0.0720 ha         1 HQY       0.121000
     15 HAG          2.6400    -2.5000     0.0540 ha         1 HQY       0.116000
     16 HAI          0.2060    -3.0030     0.0960 ha         1 HQY       0.118000
     17 HAK          3.4220    -0.1350    -0.0700 ha         1 HQY       0.132000
     18 HAD         -3.7500    -0.3030    -0.0140 ha         1 HQY       0.125000
@<TRIPOS>BOND
     1     1     8 1   
     2     1    12 1   
     3     2     3 ar  
     4     2     4 ar  
     5     2    18 1   
     6     3     6 ar  
     7     3    13 1   
     8     4    10 ar  
     9     4    14 1   
    10     5     7 ar  
    11     5     9 ar  
    12     5    15 1   
    13     6    11 ar  
    14     7    10 ar  
    15     7    16 1   
    16     8     9 ar  
    17     8    11 ar  
    18     9    17 1   
    19    10    11 ar  
@<TRIPOS>SUBSTRUCTURE
     1 HQY         1 TEMP              0 ****  ****    0 ROOT
