@<TRIPOS>MOLECULE
HR0
   24    26     1     0     0
SMALL
abcg2


@<TRIPOS>ATOM
      1 C10          9.2240    -1.9430    20.8620 ca         1 HR0      -0.192000
      2 C11         10.0450    -0.8180    20.4810 cc         1 HR0       0.652300
      3 C14          9.9420    -1.4080    18.3100 cd         1 HR0       0.458500
      4 C2           9.4000    -2.5470    16.4710 cc         1 HR0       0.415600
      5 C5           8.7710    -2.8030    19.8510 ca         1 HR0       0.517500
      6 C7           7.6780    -4.1320    21.3040 ca         1 HR0       0.398900
      7 C8           8.0630    -3.3540    22.3970 ca         1 HR0      -0.193000
      8 C9           8.8460    -2.2440    22.1730 ca         1 HR0       0.005000
      9 C15         10.1260    -1.4180    16.9340 cc         1 HR0      -0.195300
     10 C16         10.8840    -0.5120    16.1770 cg         1 HR0       0.340700
     11 N3           8.8230    -3.1800    17.4640 nd         1 HR0      -0.511100
     12 N4           9.1550    -2.4890    18.5690 na         1 HR0      -0.077600
     13 N6           8.0200    -3.8690    20.0550 nb         1 HR0      -0.652000
     14 N13         10.3880    -0.5690    19.2590 nd         1 HR0      -0.754000
     15 N17         11.5080     0.2190    15.5380 n1         1 HR0      -0.469000
     16 O12         10.4410    -0.0330    21.4570 oh         1 HR0      -0.631300
     17 H11          8.6640    -3.9040    15.0050 hc         1 HR0       0.059700
     18 H12          8.7920    -2.2300    14.4550 hc         1 HR0       0.059700
     19 H13         10.2430    -3.2050    14.6270 hc         1 HR0       0.059700
     20 H71          7.0620    -5.0110    21.4560 h4         1 HR0       0.035100
     21 H81          7.7480    -3.6270    23.3940 ha         1 HR0       0.138000
     22 H91          9.1640    -1.6190    22.9960 ha         1 HR0       0.144000
     23 H121        10.9840     0.6910    21.1080 ho         1 HR0       0.506000
     24 C1           9.2650    -3.0000    15.0640 c3         1 HR0      -0.112400
@<TRIPOS>BOND
     1     1     2 1   
     2     1     5 ar  
     3     1     8 ar  
     4     2    14 2   
     5     2    16 1   
     6     3     9 2   
     7     3    12 1   
     8     3    14 1   
     9     4     9 1   
    10     4    11 2   
    11     4    24 1   
    12     5    12 1   
    13     5    13 ar  
    14     6     7 ar  
    15     6    13 ar  
    16     6    20 1   
    17     7     8 ar  
    18     7    21 1   
    19     8    22 1   
    20     9    10 1   
    21    10    15 3   
    22    11    12 1   
    23    16    23 1   
    24    17    24 1   
    25    18    24 1   
    26    19    24 1   
@<TRIPOS>SUBSTRUCTURE
     1 HR0         1 TEMP              0 ****  ****    0 ROOT
