@<TRIPOS>MOLECULE
HR0
   24    26     1     0     0
SMALL
No Charge or Current Charge


@<TRIPOS>ATOM
      1 C10          9.1970    -1.9980    20.8400 ca         1 HR0      -0.192000
      2 C11         10.0290    -0.8710    20.4230 cc         1 HR0       0.652300
      3 C14          9.8750    -1.5010    18.3310 cd         1 HR0       0.458500
      4 C2           9.3960    -2.5610    16.4570 cc         1 HR0       0.415600
      5 C5           8.7190    -2.8840    19.8520 ca         1 HR0       0.517500
      6 C7           7.6240    -4.1580    21.4800 ca         1 HR0       0.398900
      7 C8           8.0620    -3.3210    22.5110 ca         1 HR0      -0.193000
      8 C9           8.8640    -2.2190    22.1940 ca         1 HR0       0.005000
      9 C15         10.0900    -1.4480    16.9950 cc         1 HR0      -0.195300
     10 C16         10.8390    -0.5060    16.2480 cg         1 HR0       0.340700
     11 N3           8.7630    -3.3050    17.3580 nd         1 HR0      -0.511100
     12 N4           9.0810    -2.6160    18.5270 na         1 HR0      -0.077600
     13 N6           7.9420    -3.9470    20.1860 nb         1 HR0      -0.652000
     14 N13         10.4010    -0.5680    19.2020 nd         1 HR0      -0.754000
     15 N17         11.4480     0.2540    15.6040 n1         1 HR0      -0.469000
     16 O12         10.4690    -0.0500    21.3590 oh         1 HR0      -0.631300
     17 H11          8.7770    -3.7820    14.7890 hc         1 HR0       0.059700
     18 H12          8.9310    -2.0570    14.4170 hc         1 HR0       0.059700
     19 H13         10.3850    -3.0580    14.6120 hc         1 HR0       0.059700
     20 H71          6.9990    -5.0240    21.6940 h4         1 HR0       0.035100
     21 H81          7.7810    -3.5300    23.5400 ha         1 HR0       0.138000
     22 H91          9.2140    -1.5570    22.9850 ha         1 HR0       0.144000
     23 H121        10.9780     0.5830    20.8140 ho         1 HR0       0.506000
     24 C1           9.3710    -2.8820    14.9880 c3         1 HR0      -0.112400
@<TRIPOS>BOND
     1     1     2 1   
     2     1     5 ar  
     3     1     8 ar  
     4     2    14 2   
     5     2    16 1   
     6     3     9 2   
     7     3    12 1   
     8     3    14 1   
     9     4     9 1   
    10     4    11 2   
    11     4    24 1   
    12     5    12 1   
    13     5    13 ar  
    14     6     7 ar  
    15     6    13 ar  
    16     6    20 1   
    17     7     8 ar  
    18     7    21 1   
    19     8    22 1   
    20     9    10 1   
    21    10    15 3   
    22    11    12 1   
    23    16    23 1   
    24    17    24 1   
    25    18    24 1   
    26    19    24 1   
@<TRIPOS>SUBSTRUCTURE
     1 HR0         1 TEMP              0 ****  ****    0 ROOT
