@<TRIPOS>MOLECULE
HR1
   73    77     1     0     0
SMALL
No Charge or Current Charge


@<TRIPOS>ATOM
      1 N1          -0.7610    -1.1850     1.2370 na         1 HR1       0.071000
      2 C4          -6.9320    -1.5320    -2.6920 ca         1 HR1      -0.109500
      3 C5          -0.4900     1.0130     0.9060 cc         1 HR1      -0.126000
      4 C6          -0.4410    -2.5990     1.6090 c3         1 HR1       0.087300
      5 C7           1.6640    -0.3100     1.5910 c3         1 HR1      -0.022100
      6 C8           2.4480    -0.8350     0.3640 c3         1 HR1      -0.114400
      7 C10          4.7320    -1.3020    -0.7210 c3         1 HR1      -0.148400
      8 C13         -1.2340    -3.1190     2.8310 c3         1 HR1      -0.107100
      9 C15          1.7580     4.0590     1.2170 ca         1 HR1      -0.155000
     10 C17         -6.2310    -2.1290    -0.0390 ca         1 HR1      -0.093000
     11 C20         -5.4560    -1.2000    -0.7660 ca         1 HR1       0.042600
     12 C21          0.1750     2.7790    -0.7170 ca         1 HR1      -0.074000
     13 C22         -3.9670     3.6830    -0.2490 ca         1 HR1      -0.143000
     14 C24          0.8830     3.9470    -1.0490 ca         1 HR1      -0.155000
     15 C26         -5.8120    -0.9180    -2.1040 ca         1 HR1      -0.093000
     16 C28         -5.1630     3.0720    -0.6360 ca         1 HR1      -0.084000
     17 O1          -3.4100    -2.5960     0.5130 o          1 HR1      -0.559000
     18 C3          -3.2620    -1.3900     0.3850 c          1 HR1       0.611600
     19 C2          -1.9940    -0.6840     0.7400 cd         1 HR1      -0.243600
     20 C14         -0.3990    -3.5840     0.4140 c3         1 HR1      -0.107100
     21 C1          -1.8100     0.6580     0.5460 cc         1 HR1      -0.024000
     22 C31         -2.9460     1.4810     0.1130 ca         1 HR1      -0.047000
     23 C25         -2.8770     2.8940     0.1420 ca         1 HR1      -0.063000
     24 C16         -4.1600     0.8590    -0.2640 ca         1 HR1       0.084600
     25 C19         -5.2660     1.6750    -0.6210 ca         1 HR1      -0.156000
     26 N2          -4.2870    -0.5830    -0.1720 n          1 HR1      -0.220200
     27 C23         -7.7040    -2.4420    -1.9520 ca         1 HR1      -0.109000
     28 C29         -7.3520    -2.7420    -0.6260 ca         1 HR1      -0.109500
     29 C27          0.2580     2.2340     0.5820 ca         1 HR1      -0.020000
     30 C30          1.6750     4.5820    -0.0810 ca         1 HR1       0.169000
     31 C18          1.0500     2.8890     1.5490 ca         1 HR1      -0.074000
     32 F1           2.3540     5.7050    -0.3990 f          1 HR1      -0.181000
     33 C12          0.1800    -0.1250     1.2950 cd         1 HR1      -0.098300
     34 C9           3.9810    -0.8830     0.5680 c3         1 HR1       0.168300
     35 O4           4.2860    -1.8170     1.6110 oh         1 HR1      -0.651000
     36 C11          6.2740    -1.1510    -0.6480 c3         1 HR1       0.188300
     37 O3           6.7520    -1.9790     0.4080 oh         1 HR1      -0.637000
     38 C35          6.9690    -1.5370    -1.9730 c3         1 HR1      -0.234400
     39 C36          8.4340    -1.0780    -1.9540 c          1 HR1       0.727000
     40 O7           9.2970    -1.8810    -1.6320 o          1 HR1      -0.736000
     41 O6           8.6720     0.0780    -2.2680 o          1 HR1      -0.736000
     42 H6           0.5930    -2.5980     1.9640 h1         1 HR1       0.061700
     43 H71          1.8120    -0.9750     2.4490 hc         1 HR1       0.066700
     44 H72          2.1280     0.6270     1.9050 hc         1 HR1       0.066700
     45 H81          2.0830    -1.8300     0.0870 hc         1 HR1       0.043700
     46 H82          2.2300    -0.1760    -0.4860 hc         1 HR1       0.043700
     47 H101         4.4730    -2.3370    -0.9790 hc         1 HR1       0.036200
     48 H102         4.3690    -0.6790    -1.5480 hc         1 HR1       0.036200
     49 H131        -2.3010    -3.2290     2.6240 hc         1 HR1       0.052533
     50 H132        -0.8510    -4.0970     3.1450 hc         1 HR1       0.052533
     51 H133        -1.1230    -2.4280     3.6750 hc         1 HR1       0.052533
     52 H17         -5.9760    -2.3650     0.9910 ha         1 HR1       0.126000
     53 H21         -0.4320     2.2850    -1.4730 ha         1 HR1       0.122500
     54 H22         -3.8920     4.7670    -0.2240 ha         1 HR1       0.114000
     55 H24          0.8200     4.3590    -2.0530 ha         1 HR1       0.131500
     56 H26         -5.2110    -0.2300    -2.6940 ha         1 HR1       0.126000
     57 H28         -6.0210     3.6810    -0.9130 ha         1 HR1       0.109000
     58 H141         0.1580    -3.1500    -0.4250 hc         1 HR1       0.052533
     59 H142         0.1070    -4.5110     0.7090 hc         1 HR1       0.052533
     60 H143        -1.3920    -3.8580     0.0530 hc         1 HR1       0.052533
     61 H25         -1.9920     3.4040     0.5020 ha         1 HR1       0.128000
     62 H19         -6.2340     1.2460    -0.8560 ha         1 HR1       0.122000
     63 H23         -8.5710    -2.9170    -2.4070 ha         1 HR1       0.110000
     64 H29         -7.9470    -3.4500    -0.0520 ha         1 HR1       0.113500
     65 H18          1.0950     2.5070     2.5660 ha         1 HR1       0.122500
     66 H9           4.3210     0.1250     0.8480 h1         1 HR1       0.084700
     67 HO4          3.6530    -2.5620     1.5200 ho         1 HR1       0.424000
     68 H11          6.4970    -0.0950    -0.4330 h1         1 HR1       0.083700
     69 HO3          5.9930    -2.0290     1.0400 ho         1 HR1       0.417000
     70 H351         6.8920    -2.6270    -2.0810 hc         1 HR1       0.016700
     71 H352         6.4280    -0.9830    -2.7500 hc         1 HR1       0.016700
     72 H4          -7.1970    -1.3050    -3.7230 ha         1 HR1       0.113500
     73 H15          2.3640     4.5620     1.9660 ha         1 HR1       0.131500
@<TRIPOS>BOND
     1     1     4 1   
     2     1    19 1   
     3     1    33 1   
     4     2    15 ar  
     5     2    27 ar  
     6     2    72 1   
     7     3    21 1   
     8     3    29 1   
     9     3    33 2   
    10     4     8 1   
    11     4    20 1   
    12     4    42 1   
    13     5     6 1   
    14     5    33 1   
    15     5    43 1   
    16     5    44 1   
    17     6    34 1   
    18     6    45 1   
    19     6    46 1   
    20     7    34 1   
    21     7    36 1   
    22     7    47 1   
    23     7    48 1   
    24     8    49 1   
    25     8    50 1   
    26     8    51 1   
    27     9    30 ar  
    28     9    31 ar  
    29     9    73 1   
    30    10    11 ar  
    31    10    28 ar  
    32    10    52 1   
    33    11    15 ar  
    34    11    26 1   
    35    12    14 ar  
    36    12    29 ar  
    37    12    53 1   
    38    13    16 ar  
    39    13    23 ar  
    40    13    54 1   
    41    14    30 ar  
    42    14    55 1   
    43    15    56 1   
    44    16    25 ar  
    45    16    57 1   
    46    17    18 2   
    47    18    19 1   
    48    18    26 1   
    49    19    21 2   
    50    20    58 1   
    51    20    59 1   
    52    20    60 1   
    53    21    22 1   
    54    22    23 ar  
    55    22    24 ar  
    56    23    61 1   
    57    24    25 ar  
    58    24    26 1   
    59    25    62 1   
    60    27    28 ar  
    61    27    63 1   
    62    28    64 1   
    63    29    31 ar  
    64    30    32 1   
    65    31    65 1   
    66    34    35 1   
    67    34    66 1   
    68    35    67 1   
    69    36    37 1   
    70    36    38 1   
    71    36    68 1   
    72    37    69 1   
    73    38    39 1   
    74    38    70 1   
    75    38    71 1   
    76    39    40 1   
    77    39    41 1   
@<TRIPOS>SUBSTRUCTURE
     1 HR1         1 TEMP              0 ****  ****    0 ROOT
