@<TRIPOS>MOLECULE
HR1
   73    77     1     0     0
SMALL
abcg2


@<TRIPOS>ATOM
      1 N1          -0.7330    -1.2440     0.8600 na         1 HR1       0.071000
      2 C4          -6.9150    -2.2390    -2.1300 ca         1 HR1      -0.109500
      3 C5          -0.4540     0.9720     0.6580 cc         1 HR1      -0.126000
      4 C6          -0.3820    -2.6400     1.1570 c3         1 HR1       0.087300
      5 C7           1.5890    -0.3810     1.3810 c3         1 HR1      -0.022100
      6 C8           2.4700    -0.7910     0.1980 c3         1 HR1      -0.114400
      7 C10          4.7640    -1.3370    -0.6620 c3         1 HR1      -0.148400
      8 C13         -1.1420    -3.1930     2.3550 c3         1 HR1      -0.107100
      9 C15          0.8640     4.3170     1.8120 ca         1 HR1      -0.155000
     10 C17         -6.3780    -1.3440     0.4450 ca         1 HR1      -0.093000
     11 C20         -5.4350    -1.1930    -0.5610 ca         1 HR1       0.042600
     12 C21          0.8800     2.7430    -0.4770 ca         1 HR1      -0.074000
     13 C22         -3.9020     3.6020    -0.7080 ca         1 HR1      -0.143000
     14 C24          1.5200     3.9730    -0.4900 ca         1 HR1      -0.155000
     15 C26         -5.6970    -1.6370    -1.8480 ca         1 HR1      -0.093000
     16 C28         -5.0970     2.9470    -0.9970 ca         1 HR1      -0.084000
     17 O1          -3.3890    -2.5930     0.2460 o          1 HR1      -0.559000
     18 C3          -3.1720    -1.3920     0.1520 c          1 HR1       0.611600
     19 C2          -1.9340    -0.7160     0.4380 cd         1 HR1      -0.243600
     20 C14         -0.4280    -3.5340    -0.0740 c3         1 HR1      -0.107100
     21 C1          -1.7850     0.6600     0.3050 cc         1 HR1      -0.024000
     22 C31         -2.8850     1.4800    -0.1310 ca         1 HR1      -0.047000
     23 C25         -2.8140     2.8700    -0.2820 ca         1 HR1      -0.063000
     24 C16         -4.0970     0.8300    -0.4220 ca         1 HR1       0.084600
     25 C19         -5.1980     1.5770    -0.8570 ca         1 HR1      -0.156000
     26 N2          -4.1910    -0.5510    -0.2720 n          1 HR1      -0.220200
     27 C23         -7.8640    -2.3960    -1.1280 ca         1 HR1      -0.109000
     28 C29         -7.5940    -1.9480     0.1590 ca         1 HR1      -0.109500
     29 C27          0.2240     2.2820     0.6630 ca         1 HR1      -0.020000
     30 C30          1.4970     4.7400     0.6580 ca         1 HR1       0.169000
     31 C18          0.2300     3.0830     1.8040 ca         1 HR1      -0.074000
     32 F1           2.1100     5.9340     0.6550 f          1 HR1      -0.181000
     33 C12          0.1580    -0.2200     0.9940 cd         1 HR1      -0.098300
     34 C9           3.9490    -0.9180     0.5600 c3         1 HR1       0.168300
     35 O4           4.1330    -1.7900     1.6600 oh         1 HR1      -0.651000
     36 C11          6.2590    -1.0310    -0.6030 c3         1 HR1       0.188300
     37 O3           6.8740    -1.5090     0.5790 oh         1 HR1      -0.637000
     38 C35          6.9690    -1.5570    -1.8430 c3         1 HR1      -0.234400
     39 C36          8.4630    -1.1960    -1.8940 c          1 HR1       0.727000
     40 O7           9.2560    -2.0940    -2.2430 o          1 HR1      -0.736000
     41 O6           8.7620    -0.0170    -1.6100 o          1 HR1      -0.736000
     42 H6           0.6600    -2.5950     1.4620 h1         1 HR1       0.061700
     43 H71          1.7060    -1.0810     2.2090 hc         1 HR1       0.066700
     44 H72          1.9340     0.5850     1.7580 hc         1 HR1       0.066700
     45 H81          2.1230    -1.7380    -0.2340 hc         1 HR1       0.043700
     46 H82          2.3650    -0.0450    -0.5940 hc         1 HR1       0.043700
     47 H101         4.6050    -2.4090    -0.8470 hc         1 HR1       0.036200
     48 H102         4.3640    -0.8290    -1.5460 hc         1 HR1       0.036200
     49 H131        -2.1940    -3.3560     2.1390 hc         1 HR1       0.052533
     50 H132        -0.7010    -4.1490     2.6380 hc         1 HR1       0.052533
     51 H133        -1.0570    -2.5220     3.2100 hc         1 HR1       0.052533
     52 H17         -6.1610    -0.9880     1.4440 ha         1 HR1       0.126000
     53 H21          0.8870     2.1330    -1.3720 ha         1 HR1       0.122500
     54 H22         -3.8250     4.6750    -0.8150 ha         1 HR1       0.114000
     55 H24          2.0280     4.3280    -1.3780 ha         1 HR1       0.131500
     56 H26         -4.9530    -1.5090    -2.6240 ha         1 HR1       0.126000
     57 H28         -5.9590     3.5080    -1.3340 ha         1 HR1       0.109000
     58 H141         0.1590    -3.1060    -0.8880 hc         1 HR1       0.052533
     59 H142         0.0100    -4.5000     0.1780 hc         1 HR1       0.052533
     60 H143        -1.4420    -3.7020    -0.4240 hc         1 HR1       0.052533
     61 H25         -1.8890     3.3810    -0.0570 ha         1 HR1       0.128000
     62 H19         -6.1350     1.0930    -1.0910 ha         1 HR1       0.122000
     63 H23         -8.8120    -2.8670    -1.3510 ha         1 HR1       0.110000
     64 H29         -8.3300    -2.0690     0.9430 ha         1 HR1       0.113500
     65 H18         -0.2700     2.7390     2.7000 ha         1 HR1       0.122500
     66 H9           4.2980     0.0620     0.9050 h1         1 HR1       0.084700
     67 HO4          3.8230    -2.6640     1.4010 ho         1 HR1       0.424000
     68 H11          6.3830     0.0560    -0.5720 h1         1 HR1       0.083700
     69 HO3          6.5980    -2.4200     0.7170 ho         1 HR1       0.417000
     70 H351         6.8330    -2.6410    -1.9140 hc         1 HR1       0.016700
     71 H352         6.4840    -1.1300    -2.7290 hc         1 HR1       0.016700
     72 H4          -7.1230    -2.5860    -3.1340 ha         1 HR1       0.113500
     73 H15          0.8680     4.9370     2.6980 ha         1 HR1       0.131500
@<TRIPOS>BOND
     1     1     4 1   
     2     1    19 1   
     3     1    33 1   
     4     2    15 ar  
     5     2    27 ar  
     6     2    72 1   
     7     3    21 1   
     8     3    29 1   
     9     3    33 2   
    10     4     8 1   
    11     4    20 1   
    12     4    42 1   
    13     5     6 1   
    14     5    33 1   
    15     5    43 1   
    16     5    44 1   
    17     6    34 1   
    18     6    45 1   
    19     6    46 1   
    20     7    34 1   
    21     7    36 1   
    22     7    47 1   
    23     7    48 1   
    24     8    49 1   
    25     8    50 1   
    26     8    51 1   
    27     9    30 ar  
    28     9    31 ar  
    29     9    73 1   
    30    10    11 ar  
    31    10    28 ar  
    32    10    52 1   
    33    11    15 ar  
    34    11    26 1   
    35    12    14 ar  
    36    12    29 ar  
    37    12    53 1   
    38    13    16 ar  
    39    13    23 ar  
    40    13    54 1   
    41    14    30 ar  
    42    14    55 1   
    43    15    56 1   
    44    16    25 ar  
    45    16    57 1   
    46    17    18 2   
    47    18    19 1   
    48    18    26 1   
    49    19    21 2   
    50    20    58 1   
    51    20    59 1   
    52    20    60 1   
    53    21    22 1   
    54    22    23 ar  
    55    22    24 ar  
    56    23    61 1   
    57    24    25 ar  
    58    24    26 1   
    59    25    62 1   
    60    27    28 ar  
    61    27    63 1   
    62    28    64 1   
    63    29    31 ar  
    64    30    32 1   
    65    31    65 1   
    66    34    35 1   
    67    34    66 1   
    68    35    67 1   
    69    36    37 1   
    70    36    38 1   
    71    36    68 1   
    72    37    69 1   
    73    38    39 1   
    74    38    70 1   
    75    38    71 1   
    76    39    40 1   
    77    39    41 1   
@<TRIPOS>SUBSTRUCTURE
     1 HR1         1 TEMP              0 ****  ****    0 ROOT
