@<TRIPOS>MOLECULE
HR2
   72    75     1     0     0
SMALL
abcg2


@<TRIPOS>ATOM
      1 N1          32.5080    -7.6660    -2.7820 na         1 HR2       0.061000
      2 C4          34.2160    -8.8740    -3.6210 cc         1 HR2      -0.086300
      3 C5          34.7490    -7.7510    -2.9360 cc         1 HR2      -0.117000
      4 C6          34.9450   -10.0100    -4.2740 c3         1 HR2      -0.008100
      5 C7          38.8690    -6.7780    -2.5430 ca         1 HR2       0.155000
      6 C8          37.0200    -7.4060    -3.9080 ca         1 HR2      -0.083500
      7 C10         31.1620    -7.1160    -2.5270 c3         1 HR2       0.085300
      8 C13         31.9120    -9.8470    -3.9840 c          1 HR2       0.614600
      9 C15         38.3700    -7.0960    -3.7930 ca         1 HR2      -0.147000
     10 C17         31.6450   -11.6370    -5.5850 ca         1 HR2      -0.033000
     11 C20         33.4980    -5.7960    -0.2160 c3         1 HR2      -0.110400
     12 C21         33.7570    -4.4730     0.4930 c3         1 HR2       0.159300
     13 C22         33.7840    -4.5990     2.0150 c3         1 HR2      -0.141400
     14 C24         34.9090    -5.4570     4.0980 c3         1 HR2      -0.199400
     15 C28         30.7220   -11.6610    -6.6260 ca         1 HR2      -0.106000
     16 F1          40.1890    -6.4720    -2.4220 f          1 HR2      -0.190000
     17 C9          36.1730    -7.4110    -2.7920 ca         1 HR2      -0.011000
     18 C14         36.7280    -7.0880    -1.5470 ca         1 HR2      -0.083500
     19 C18         38.0730    -6.7630    -1.4130 ca         1 HR2      -0.147000
     20 C3          33.6690    -7.0150    -2.4450 cd         1 HR2      -0.107300
     21 C19         33.7150    -5.7050    -1.7330 c3         1 HR2      -0.020100
     22 O33         32.7990    -3.4790     0.0900 oh         1 HR2      -0.675000
     23 C23         34.9110    -5.4670     2.5810 c3         1 HR2       0.186300
     24 O34         36.2030    -4.9840     2.1580 oh         1 HR2      -0.651000
     25 O27         35.9790    -7.5950     4.2440 o          1 HR2      -0.739500
     26 O26         36.5250    -6.0390     5.7610 o          1 HR2      -0.739500
     27 C12         30.3210    -7.0630    -3.8000 c3         1 HR2      -0.109100
     28 C11         30.4590    -7.8310    -1.3730 c3         1 HR2      -0.109100
     29 C2          34.6710   -10.1110    -5.7850 c3         1 HR2      -0.091400
     30 C16         33.2140    -9.7810    -6.1100 c3         1 HR2       0.119000
     31 N15         32.2510   -10.4050    -5.1890 n          1 HR2      -0.254400
     32 O14         30.9330   -10.2460    -3.3420 o          1 HR2      -0.559000
     33 C1          32.8330    -8.8030    -3.5160 cd         1 HR2      -0.248600
     34 C29         30.1570   -12.8680    -7.0240 ca         1 HR2      -0.105500
     35 C30         30.5060   -14.0510    -6.3790 ca         1 HR2      -0.116000
     36 C31         31.4280   -14.0240    -5.3370 ca         1 HR2      -0.105500
     37 C32         32.0010   -12.8200    -4.9420 ca         1 HR2      -0.106000
     38 H61         36.0160    -9.9280    -4.0940 hc         1 HR2       0.055200
     39 H62         34.6220   -10.9450    -3.8080 hc         1 HR2       0.055200
     40 H8          36.6150    -7.6350    -4.8850 ha         1 HR2       0.121500
     41 H10         31.3380    -6.0890    -2.2190 h1         1 HR2       0.060700
     42 H15         39.0230    -7.0920    -4.6560 ha         1 HR2       0.134500
     43 H201        32.4800    -6.1240     0.0100 hc         1 HR2       0.054700
     44 H202        34.1630    -6.5610     0.1890 hc         1 HR2       0.054700
     45 H21         34.7140    -4.0690     0.1520 h1         1 HR2       0.072700
     46 H221        33.8720    -3.5930     2.4350 hc         1 HR2       0.048700
     47 H222        32.8270    -5.0120     2.3520 hc         1 HR2       0.048700
     48 H241        35.1150    -4.4450     4.4540 hc         1 HR2       0.029200
     49 H242        33.9050    -5.7240     4.4450 hc         1 HR2       0.029200
     50 H28         30.4490   -10.7360    -7.1170 ha         1 HR2       0.120500
     51 H14         36.1060    -7.1040    -0.6630 ha         1 HR2       0.121500
     52 H18         38.4980    -6.5160    -0.4500 ha         1 HR2       0.134500
     53 H191        32.9970    -5.0030    -2.1620 hc         1 HR2       0.060200
     54 H192        34.7030    -5.2750    -1.9130 hc         1 HR2       0.060200
     55 HO33        31.9260    -3.7720     0.3820 ho         1 HR2       0.428000
     56 H23         34.7970    -6.5000     2.2440 h1         1 HR2       0.048700
     57 HO34        36.3540    -5.2590     1.2460 ho         1 HR2       0.406000
     58 H121        29.4130    -6.4910    -3.6020 hc         1 HR2       0.052367
     59 H122        30.8700    -6.5680    -4.6030 hc         1 HR2       0.052367
     60 H123        30.0270    -8.0570    -4.1330 hc         1 HR2       0.052367
     61 H111        30.2390    -8.8620    -1.6410 hc         1 HR2       0.052367
     62 H112        31.0840    -7.8240    -0.4800 hc         1 HR2       0.052367
     63 H113        29.5270    -7.3120    -1.1420 hc         1 HR2       0.052367
     64 H21A        35.3020    -9.4110    -6.3390 hc         1 HR2       0.044200
     65 H22         34.9220   -11.1170    -6.1280 hc         1 HR2       0.044200
     66 H161        33.0630    -8.7040    -6.0690 h1         1 HR2       0.051200
     67 H162        32.9630   -10.1100    -7.1170 h1         1 HR2       0.051200
     68 H29         29.4380   -12.8820    -7.8340 ha         1 HR2       0.111500
     69 H30         30.0630   -14.9890    -6.6880 ha         1 HR2       0.109000
     70 H31         31.7080   -14.9410    -4.8340 ha         1 HR2       0.111500
     71 H32         32.7240   -12.7880    -4.1380 ha         1 HR2       0.120500
     72 C25         35.8970    -6.4450     4.7490 c          1 HR2       0.720000
@<TRIPOS>BOND
     1     1     7 1   
     2     1    20 1   
     3     1    33 1   
     4     2     3 1   
     5     2     4 1   
     6     2    33 2   
     7     3    17 1   
     8     3    20 2   
     9     4    29 1   
    10     4    38 1   
    11     4    39 1   
    12     5     9 ar  
    13     5    16 1   
    14     5    19 ar  
    15     6     9 ar  
    16     6    17 ar  
    17     6    40 1   
    18     7    27 1   
    19     7    28 1   
    20     7    41 1   
    21     8    31 1   
    22     8    32 2   
    23     8    33 1   
    24     9    42 1   
    25    10    15 ar  
    26    10    31 1   
    27    10    37 ar  
    28    11    12 1   
    29    11    21 1   
    30    11    43 1   
    31    11    44 1   
    32    12    13 1   
    33    12    22 1   
    34    12    45 1   
    35    13    23 1   
    36    13    46 1   
    37    13    47 1   
    38    14    23 1   
    39    14    48 1   
    40    14    49 1   
    41    14    72 1   
    42    15    34 ar  
    43    15    50 1   
    44    17    18 ar  
    45    18    19 ar  
    46    18    51 1   
    47    19    52 1   
    48    20    21 1   
    49    21    53 1   
    50    21    54 1   
    51    22    55 1   
    52    23    24 1   
    53    23    56 1   
    54    24    57 1   
    55    25    72 1   
    56    26    72 1   
    57    27    58 1   
    58    27    59 1   
    59    27    60 1   
    60    28    61 1   
    61    28    62 1   
    62    28    63 1   
    63    29    30 1   
    64    29    64 1   
    65    29    65 1   
    66    30    31 1   
    67    30    66 1   
    68    30    67 1   
    69    34    35 ar  
    70    34    68 1   
    71    35    36 ar  
    72    35    69 1   
    73    36    37 ar  
    74    36    70 1   
    75    37    71 1   
@<TRIPOS>SUBSTRUCTURE
     1 HR2         1 TEMP              0 ****  ****    0 ROOT
