@<TRIPOS>MOLECULE
HR2
   72    75     1     0     0
SMALL
No Charge or Current Charge


@<TRIPOS>ATOM
      1 N1          32.6220    -7.7360    -2.6960 na         1 HR2       0.061000
      2 C4          34.2700    -8.8890    -3.6830 cc         1 HR2      -0.086300
      3 C5          34.8400    -7.8060    -2.9770 cc         1 HR2      -0.117000
      4 C6          35.0770    -9.9880    -4.3410 c3         1 HR2      -0.008100
      5 C7          38.9190    -6.4420    -3.0700 ca         1 HR2       0.155000
      6 C8          36.9740    -7.3550    -4.2050 ca         1 HR2      -0.083500
      7 C10         31.2710    -7.2330    -2.2990 c3         1 HR2       0.085300
      8 C13         31.9680    -9.9090    -4.0670 c          1 HR2       0.614600
      9 C15         38.3080    -6.9110    -4.2410 ca         1 HR2      -0.147000
     10 C17         31.7760   -11.8310    -5.6770 ca         1 HR2      -0.033000
     11 C20         33.7000    -5.7670    -0.1930 c3         1 HR2      -0.110400
     12 C21         33.9660    -4.4250     0.5390 c3         1 HR2       0.159300
     13 C22         33.7890    -4.5100     2.0770 c3         1 HR2      -0.141400
     14 C24         34.4930    -5.4990     4.3380 c3         1 HR2      -0.199400
     15 C28         31.1560   -11.9160    -6.9460 ca         1 HR2      -0.106000
     16 F1          40.2000    -6.0170    -3.1030 f          1 HR2      -0.190000
     17 C9          36.2350    -7.3300    -3.0020 ca         1 HR2      -0.011000
     18 C14         36.8700    -6.8610    -1.8310 ca         1 HR2      -0.083500
     19 C18         38.2050    -6.4180    -1.8640 ca         1 HR2      -0.147000
     20 C3          33.8310    -7.0560    -2.4130 cd         1 HR2      -0.107300
     21 C19         33.9070    -5.6970    -1.7290 c3         1 HR2      -0.020100
     22 O33         33.0580    -3.4350     0.0440 oh         1 HR2      -0.675000
     23 C23         34.7890    -5.4340     2.8220 c3         1 HR2       0.186300
     24 O34         36.1190    -4.9440     2.6200 oh         1 HR2      -0.651000
     25 O27         34.8040    -7.7650     4.9490 o          1 HR2      -0.739500
     26 O26         36.3530    -6.3870     5.5260 o          1 HR2      -0.739500
     27 C12         30.3210    -6.9660    -3.4910 c3         1 HR2      -0.109100
     28 C11         30.6210    -8.0330    -1.1460 c3         1 HR2      -0.109100
     29 C2          34.7910   -10.1250    -5.8450 c3         1 HR2      -0.091400
     30 C16         33.3080    -9.8970    -6.1710 c3         1 HR2       0.119000
     31 N15         32.3940   -10.6020    -5.2370 n          1 HR2      -0.254400
     32 O14         30.8870   -10.1680    -3.5540 o          1 HR2      -0.559000
     33 C1          32.9010    -8.8580    -3.5180 cd         1 HR2      -0.248600
     34 C29         30.4160   -13.0550    -7.3080 ca         1 HR2      -0.105500
     35 C30         30.2330   -14.0990    -6.3880 ca         1 HR2      -0.116000
     36 C31         30.7660   -13.9870    -5.0950 ca         1 HR2      -0.105500
     37 C32         31.5050   -12.8460    -4.7350 ca         1 HR2      -0.106000
     38 H61         36.1530    -9.8690    -4.1750 hc         1 HR2       0.055200
     39 H62         34.8200   -10.9370    -3.8540 hc         1 HR2       0.055200
     40 H8          36.5040    -7.6910    -5.1250 ha         1 HR2       0.121500
     41 H10         31.4220    -6.2370    -1.8730 h1         1 HR2       0.060700
     42 H15         38.8640    -6.9250    -5.1740 ha         1 HR2       0.134500
     43 H201        32.6820    -6.1030     0.0300 hc         1 HR2       0.054700
     44 H202        34.3670    -6.5360     0.2090 hc         1 HR2       0.054700
     45 H21         34.9980    -4.1140     0.3230 h1         1 HR2       0.072700
     46 H221        33.8730    -3.5000     2.4970 hc         1 HR2       0.048700
     47 H222        32.7680    -4.8500     2.2930 hc         1 HR2       0.048700
     48 H241        34.7690    -4.5290     4.7690 hc         1 HR2       0.029200
     49 H242        33.4210    -5.7210     4.4110 hc         1 HR2       0.029200
     50 H28         31.2360   -11.1000    -7.6590 ha         1 HR2       0.120500
     51 H14         36.3410    -6.8680    -0.8840 ha         1 HR2       0.121500
     52 H18         38.6870    -6.0630    -0.9570 ha         1 HR2       0.134500
     53 H191        33.1680    -5.0170    -2.1690 hc         1 HR2       0.060200
     54 H192        34.8660    -5.2120    -1.9390 hc         1 HR2       0.060200
     55 HO33        32.1640    -3.6820     0.3640 ho         1 HR2       0.428000
     56 H23         34.6940    -6.4520     2.4200 h1         1 HR2       0.048700
     57 HO34        36.4210    -5.2760     1.7490 ho         1 HR2       0.406000
     58 H121        29.4350    -6.4160    -3.1530 hc         1 HR2       0.052367
     59 H122        30.8260    -6.3570    -4.2510 hc         1 HR2       0.052367
     60 H123        29.9750    -7.8870    -3.9680 hc         1 HR2       0.052367
     61 H111        30.3080    -9.0330    -1.4540 hc         1 HR2       0.052367
     62 H112        31.3240    -8.1420    -0.3120 hc         1 HR2       0.052367
     63 H113        29.7340    -7.5070    -0.7720 hc         1 HR2       0.052367
     64 H21A        35.3920    -9.4020    -6.4090 hc         1 HR2       0.044200
     65 H22         35.0930   -11.1250    -6.1780 hc         1 HR2       0.044200
     66 H161        33.0870    -8.8210    -6.1420 h1         1 HR2       0.051200
     67 H162        33.1360   -10.2220    -7.2030 h1         1 HR2       0.051200
     68 H29         29.9680   -13.1190    -8.2970 ha         1 HR2       0.111500
     69 H30         29.6550   -14.9770    -6.6670 ha         1 HR2       0.109000
     70 H31         30.5960   -14.7770    -4.3670 ha         1 HR2       0.111500
     71 H32         31.8920   -12.7640    -3.7230 ha         1 HR2       0.120500
     72 C25         35.2840    -6.6420     4.9900 c          1 HR2       0.720000
@<TRIPOS>BOND
     1     1     7 1   
     2     1    20 1   
     3     1    33 1   
     4     2     3 1   
     5     2     4 1   
     6     2    33 2   
     7     3    17 1   
     8     3    20 2   
     9     4    29 1   
    10     4    38 1   
    11     4    39 1   
    12     5     9 ar  
    13     5    16 1   
    14     5    19 ar  
    15     6     9 ar  
    16     6    17 ar  
    17     6    40 1   
    18     7    27 1   
    19     7    28 1   
    20     7    41 1   
    21     8    31 1   
    22     8    32 2   
    23     8    33 1   
    24     9    42 1   
    25    10    15 ar  
    26    10    31 1   
    27    10    37 ar  
    28    11    12 1   
    29    11    21 1   
    30    11    43 1   
    31    11    44 1   
    32    12    13 1   
    33    12    22 1   
    34    12    45 1   
    35    13    23 1   
    36    13    46 1   
    37    13    47 1   
    38    14    23 1   
    39    14    48 1   
    40    14    49 1   
    41    14    72 1   
    42    15    34 ar  
    43    15    50 1   
    44    17    18 ar  
    45    18    19 ar  
    46    18    51 1   
    47    19    52 1   
    48    20    21 1   
    49    21    53 1   
    50    21    54 1   
    51    22    55 1   
    52    23    24 1   
    53    23    56 1   
    54    24    57 1   
    55    25    72 1   
    56    26    72 1   
    57    27    58 1   
    58    27    59 1   
    59    27    60 1   
    60    28    61 1   
    61    28    62 1   
    62    28    63 1   
    63    29    30 1   
    64    29    64 1   
    65    29    65 1   
    66    30    31 1   
    67    30    66 1   
    68    30    67 1   
    69    34    35 ar  
    70    34    68 1   
    71    35    36 ar  
    72    35    69 1   
    73    36    37 ar  
    74    36    70 1   
    75    37    71 1   
@<TRIPOS>SUBSTRUCTURE
     1 HR2         1 TEMP              0 ****  ****    0 ROOT
