@<TRIPOS>MOLECULE
HR3
   34    35     1     0     0
SMALL
No Charge or Current Charge


@<TRIPOS>ATOM
      1 C10         -0.4530    10.7020   -24.4700 ca         1 HR3       0.112100
      2 C13          1.6320     9.6670   -23.6500 c3         1 HR3       0.156900
      3 C15         -6.2700    12.2830   -21.1060 c          1 HR3       0.724600
      4 C1          -6.7410    11.7920   -23.5930 ca         1 HR3       0.274000
      5 C2          -7.7070    11.6660   -24.6320 ca         1 HR3       0.183900
      6 C3          -9.4990    12.1180   -23.2020 ca         1 HR3       0.209500
      7 C4          -8.5970    12.2650   -22.1180 ca         1 HR3      -0.068000
      8 C5          -7.1980    12.1040   -22.2920 ca         1 HR3      -0.216600
      9 C6          -4.7730    10.8600   -24.9360 c3         1 HR3       0.293100
     10 C7          -3.2620    10.8050   -24.7700 ca         1 HR3      -0.093300
     11 C8          -2.4490    11.8100   -25.3290 ca         1 HR3      -0.059000
     12 C9          -1.0520    11.7560   -25.1780 ca         1 HR3      -0.179500
     13 C11         -1.2650     9.6930   -23.9070 ca         1 HR3      -0.179500
     14 C12         -2.6620     9.7480   -24.0580 ca         1 HR3      -0.059000
     15 C14        -11.0240    12.3020   -22.9560 c          1 HR3       0.619500
     16 N1          -9.0400    11.8190   -24.4570 nb         1 HR3      -0.635000
     17 N2          -5.3730    11.6220   -23.8400 nu         1 HR3      -1.002200
     18 O1           0.9220    10.7010   -24.3560 os         1 HR3      -0.353100
     19 O2         -11.4160    12.5650   -21.8240 o          1 HR3      -0.737000
     20 O3         -11.8070    12.1810   -23.8930 o          1 HR3      -0.737000
     21 O4          -5.1380    11.8200   -21.1480 o          1 HR3      -0.741500
     22 O5          -6.6980    12.8790   -20.1290 o          1 HR3      -0.741500
     23 H11          2.7120     9.8600   -23.6810 h1         1 HR3       0.028700
     24 H12          1.3220     9.6310   -22.5980 h1         1 HR3       0.028700
     25 H10          1.4470     8.6870   -24.1080 h1         1 HR3       0.028700
     26 H01         -7.4030    11.4310   -25.6520 h4         1 HR3      -0.037900
     27 H02         -8.9920    12.5030   -21.1340 ha         1 HR3       0.149000
     28 H04         -5.0220    11.3260   -25.8990 h1         1 HR3       0.017200
     29 H05         -5.1770     9.8380   -24.9420 h1         1 HR3       0.017200
     30 H06         -2.9020    12.6340   -25.8780 ha         1 HR3       0.121000
     31 H07         -0.4320    12.5360   -25.6130 ha         1 HR3       0.105500
     32 H08         -0.8340     8.8650   -23.3530 ha         1 HR3       0.105500
     33 H09         -3.2820     8.9680   -23.6200 ha         1 HR3       0.121000
     34 H03         -4.8330    11.6390   -22.9600 hn         1 HR3       0.544000
@<TRIPOS>BOND
     1     1    12 ar  
     2     1    13 ar  
     3     1    18 1   
     4     2    18 1   
     5     2    23 1   
     6     2    24 1   
     7     2    25 1   
     8     3     8 1   
     9     3    21 1   
    10     3    22 1   
    11     4     5 ar  
    12     4     8 ar  
    13     4    17 1   
    14     5    16 ar  
    15     5    26 1   
    16     6     7 ar  
    17     6    15 1   
    18     6    16 ar  
    19     7     8 ar  
    20     7    27 1   
    21     9    10 1   
    22     9    17 1   
    23     9    28 1   
    24     9    29 1   
    25    10    11 ar  
    26    10    14 ar  
    27    11    12 ar  
    28    11    30 1   
    29    12    31 1   
    30    13    14 ar  
    31    13    32 1   
    32    14    33 1   
    33    15    19 1   
    34    15    20 1   
    35    17    34 1   
@<TRIPOS>SUBSTRUCTURE
     1 HR3         1 TEMP              0 ****  ****    0 ROOT
