@<TRIPOS>MOLECULE
HR3
   34    35     1     0     0
SMALL
bcc


@<TRIPOS>ATOM
      1 C10         -0.4810    10.7280   -24.3880 ca         1 HR3       0.112100
      2 C13          1.6440     9.7100   -24.1250 c3         1 HR3       0.133700
      3 C15         -6.4350    12.6400   -21.0410 c          1 HR3       0.935200
      4 C1          -6.7000    11.6520   -23.4180 ca         1 HR3       0.070300
      5 C2          -7.6000    11.3080   -24.4470 ca         1 HR3       0.249200
      6 C3          -9.4230    12.1770   -23.3670 ca         1 HR3       0.274800
      7 C4          -8.6180    12.5250   -22.2860 ca         1 HR3      -0.151300
      8 C5          -7.2560    12.2710   -22.2720 ca         1 HR3      -0.216600
      9 C6          -4.7880    10.6220   -24.5850 c3         1 HR3       0.293100
     10 C7          -3.2870    10.6540   -24.5040 ca         1 HR3      -0.093300
     11 C8          -2.5910    11.8480   -24.7010 ca         1 HR3      -0.077000
     12 C9          -1.2120    11.8920   -24.6460 ca         1 HR3      -0.197500
     13 C11         -1.1600     9.5320   -24.1820 ca         1 HR3      -0.197500
     14 C12         -2.5510     9.5110   -24.2400 ca         1 HR3      -0.077000
     15 C14        -10.9180    12.4770   -23.3700 c          1 HR3       0.830100
     16 N1          -8.8940    11.5640   -24.4250 nb         1 HR3      -0.635000
     17 N2          -5.3690    11.4130   -23.5310 nu         1 HR3      -0.808600
     18 O1           0.8600    10.8610   -24.3620 os         1 HR3      -0.329900
     19 O2         -11.3680    13.0250   -22.3410 o          1 HR3      -0.842300
     20 O3         -11.5580    12.1590   -24.3890 o          1 HR3      -0.842300
     21 O4          -5.2220    12.3150   -21.0440 o          1 HR3      -0.846800
     22 O5          -7.0280    13.2270   -20.1220 o          1 HR3      -0.846800
     23 H11          2.6820    10.0310   -24.1540 h1         1 HR3       0.028700
     24 H12          1.4400     9.2690   -23.1460 h1         1 HR3       0.028700
     25 H10          1.4900     8.9460   -24.8930 h1         1 HR3       0.028700
     26 H01         -7.2360    10.7980   -25.3330 h4         1 HR3      -0.037900
     27 H02         -9.0670    13.0030   -21.4270 ha         1 HR3       0.167000
     28 H04         -5.0980    11.0200   -25.5570 h1         1 HR3       0.017200
     29 H05         -5.1350     9.5800   -24.5580 h1         1 HR3       0.017200
     30 H06         -3.1390    12.7600   -24.9100 ha         1 HR3       0.139000
     31 H07         -0.6870    12.8250   -24.8080 ha         1 HR3       0.123500
     32 H08         -0.6320     8.6110   -23.9760 ha         1 HR3       0.123500
     33 H09         -3.0630     8.5700   -24.0770 ha         1 HR3       0.139000
     34 H03         -4.8650    11.5500   -22.6580 hn         1 HR3       0.488800
@<TRIPOS>BOND
     1     1    12 ar  
     2     1    13 ar  
     3     1    18 1   
     4     2    18 1   
     5     2    23 1   
     6     2    24 1   
     7     2    25 1   
     8     3     8 1   
     9     3    21 1   
    10     3    22 1   
    11     4     5 ar  
    12     4     8 ar  
    13     4    17 1   
    14     5    16 ar  
    15     5    26 1   
    16     6     7 ar  
    17     6    15 1   
    18     6    16 ar  
    19     7     8 ar  
    20     7    27 1   
    21     9    10 1   
    22     9    17 1   
    23     9    28 1   
    24     9    29 1   
    25    10    11 ar  
    26    10    14 ar  
    27    11    12 ar  
    28    11    30 1   
    29    12    31 1   
    30    13    14 ar  
    31    13    32 1   
    32    14    33 1   
    33    15    19 1   
    34    15    20 1   
    35    17    34 1   
@<TRIPOS>SUBSTRUCTURE
     1 HR3         1 TEMP              0 ****  ****    0 ROOT
