@<TRIPOS>MOLECULE
HR4
   48    52     1     0     0
SMALL
No Charge or Current Charge


@<TRIPOS>ATOM
      1 F1           4.8950     5.2580    -0.6620 f          1 HR4      -0.176000
      2 C13          3.6450     4.7510    -0.5910 ca         1 HR4       0.178000
      3 C14          2.9470     4.4490    -1.7700 ca         1 HR4      -0.155500
      4 C15          1.6450     3.9210    -1.6980 ca         1 HR4      -0.063500
      5 C12          3.0530     4.5290     0.6600 ca         1 HR4      -0.155500
      6 C11          1.7510     4.0000     0.7360 ca         1 HR4      -0.063500
      7 C10          1.0420     3.6960    -0.4440 ca         1 HR4      -0.118300
      8 C9          -0.3630     3.1170    -0.3620 c3         1 HR4       0.111900
      9 S1          -0.2860     1.2800    -0.2070 ss         1 HR4      -0.230200
     10 C8          -1.9850     0.8310    -0.1380 cc         1 HR4       0.432700
     11 N7          -2.9740     1.7330    -0.1670 nd         1 HR4      -0.563100
     12 C5          -4.1040     0.9210    -0.0180 ca         1 HR4      -0.086600
     13 C6          -5.4660     1.2850     0.0280 ca         1 HR4       0.451900
     14 N6          -5.8840     2.5750    -0.0810 nv         1 HR4      -1.056900
     15 N1          -6.4270     0.3630     0.1930 nb         1 HR4      -0.295000
     16 C2          -6.0080    -0.9210     0.3050 ca         1 HR4       0.189900
     17 N3          -4.7280    -1.3620     0.2700 nb         1 HR4      -0.238000
     18 C4          -3.7840    -0.4130     0.1090 ca         1 HR4       0.130500
     19 N9          -2.4190    -0.4880     0.0320 na         1 HR4      -0.288300
     20 C1          -1.6310    -1.7290     0.0440 c5         1 HR4       0.272300
     21 C16         -0.4840    -1.9570    -1.0360 c5         1 HR4       0.152300
     22 O2          -0.6360    -3.2070    -1.7350 oh         1 HR4      -0.687000
     23 O4          -1.0230    -1.9180     1.3540 os         1 HR4      -0.416000
     24 C17          0.1340    -2.7330     1.1190 c5         1 HR4       0.073300
     25 C3           0.7470    -2.0090    -0.0850 c5         1 HR4       0.139300
     26 O3           1.8140    -2.8410    -0.6050 os         1 HR4      -0.495400
     27 C7           1.1310    -2.8580     2.2870 c6         1 HR4       0.208600
     28 O5           2.3080    -3.5610     1.8090 os         1 HR4      -0.574400
     29 P            3.0380    -3.0740     0.4430 p5         1 HR4       1.115200
     30 S2           3.6870    -1.1360     0.9220 sh         1 HR4      -0.550200
     31 O2P          4.1140    -3.9770    -0.0430 o          1 HR4      -0.431000
     32 H1           3.4140     4.6230    -2.7360 ha         1 HR4       0.138000
     33 H2           1.1090     3.6840    -2.6150 ha         1 HR4       0.128000
     34 H3           3.6010     4.7630     1.5690 ha         1 HR4       0.138000
     35 H4           1.2960     3.8250     1.7090 ha         1 HR4       0.128000
     36 H5          -0.8900     3.5300     0.5070 h1         1 HR4       0.086200
     37 H6          -0.9330     3.3790    -1.2630 h1         1 HR4       0.086200
     38 H7          -5.1690     3.2920     0.0150 hn         1 HR4       0.507500
     39 H8          -6.8130     2.8100     0.2570 hn         1 HR4       0.507500
     40 H9          -6.7810    -1.6760     0.4370 h5         1 HR4       0.050100
     41 H10         -2.3710    -2.5250    -0.1080 h2         1 HR4       0.111700
     42 H11         -0.4120    -1.1220    -1.7460 h1         1 HR4       0.083700
     43 H12          0.2850    -3.5470    -1.8540 ho         1 HR4       0.525000
     44 H13         -0.1960    -3.7480     0.8540 h1         1 HR4       0.095700
     45 H14          1.1140    -1.0070     0.1690 h1         1 HR4       0.097700
     46 H15          1.4150    -1.8660     2.6670 h1         1 HR4       0.086700
     47 H16          0.6780    -3.4260     3.1130 h1         1 HR4       0.086700
     48 H17          4.9170    -1.5590     0.5410 hs         1 HR4       0.328800
@<TRIPOS>BOND
     1     1     2 1   
     2     2     3 ar  
     3     2     5 ar  
     4     3     4 ar  
     5     3    32 1   
     6     4     7 ar  
     7     4    33 1   
     8     5     6 ar  
     9     5    34 1   
    10     6     7 ar  
    11     6    35 1   
    12     7     8 1   
    13     8     9 1   
    14     8    36 1   
    15     8    37 1   
    16     9    10 1   
    17    10    11 2   
    18    10    19 1   
    19    11    12 1   
    20    12    13 ar  
    21    12    18 ar  
    22    13    14 1   
    23    13    15 ar  
    24    14    38 1   
    25    14    39 1   
    26    15    16 ar  
    27    16    17 ar  
    28    16    40 1   
    29    17    18 ar  
    30    18    19 1   
    31    19    20 1   
    32    20    21 1   
    33    20    23 1   
    34    20    41 1   
    35    21    22 1   
    36    21    25 1   
    37    21    42 1   
    38    22    43 1   
    39    23    24 1   
    40    24    25 1   
    41    24    27 1   
    42    24    44 1   
    43    25    26 1   
    44    25    45 1   
    45    26    29 1   
    46    27    28 1   
    47    27    46 1   
    48    27    47 1   
    49    28    29 1   
    50    29    30 1   
    51    29    31 2   
    52    30    48 1   
@<TRIPOS>SUBSTRUCTURE
     1 HR4         1 TEMP              0 ****  ****    0 ROOT
