@<TRIPOS>MOLECULE
HR4
   48    52     1     0     0
SMALL
bcc


@<TRIPOS>ATOM
      1 F1           5.1330     4.3580     0.1100 f          1 HR4      -0.140900
      2 C13          3.8300     4.0350     0.1250 ca         1 HR4       0.142900
      3 C14          3.3380     3.1990    -0.8610 ca         1 HR4      -0.173500
      4 C15          1.9940     2.8680    -0.8360 ca         1 HR4      -0.081500
      5 C12          3.0240     4.5500     1.1200 ca         1 HR4      -0.173500
      6 C11          1.6780     4.2080     1.1270 ca         1 HR4      -0.081500
      7 C10          1.1490     3.3700     0.1520 ca         1 HR4      -0.118300
      8 C9          -0.2960     2.9700     0.1770 c3         1 HR4       0.064000
      9 S1          -0.3440     1.2850     0.8760 ss         1 HR4      -0.182300
     10 C8          -1.9740     0.8240     0.4670 cc         1 HR4       0.432700
     11 N7          -2.9060     1.6610     0.1130 nd         1 HR4      -0.563100
     12 C5          -4.0070     0.8800    -0.1270 ca         1 HR4      -0.217200
     13 C6          -5.3170     1.1710    -0.5450 ca         1 HR4       0.780200
     14 N6          -5.7320     2.4090    -0.8170 nv         1 HR4      -0.946500
     15 N1          -6.1680     0.1460    -0.6860 nb         1 HR4      -0.821000
     16 C2          -5.7500    -1.0890    -0.4310 ca         1 HR4       0.715900
     17 N3          -4.5490    -1.4820    -0.0350 nb         1 HR4      -0.764000
     18 C4          -3.7210    -0.4520     0.1040 ca         1 HR4       0.458800
     19 N9          -2.4070    -0.4840     0.4880 na         1 HR4      -0.259000
     20 C1          -1.7000    -1.7180     0.7470 c5         1 HR4       0.219800
     21 C16         -1.1050    -2.3850    -0.5350 c5         1 HR4       0.129100
     22 O2          -1.2120    -3.7730    -0.4920 oh         1 HR4      -0.564800
     23 O4          -0.6360    -1.4510     1.6330 os         1 HR4      -0.369600
     24 C17          0.5130    -2.1110     1.1480 c5         1 HR4       0.050100
     25 C3           0.3510    -2.0000    -0.3580 c5         1 HR4       0.116100
     26 O3           1.2960    -2.8090    -1.0420 os         1 HR4      -0.472200
     27 C7           1.8290    -1.5100     1.5960 c6         1 HR4       0.185400
     28 O5           2.8510    -2.2780     0.9310 os         1 HR4      -0.551200
     29 P            2.8350    -2.5380    -0.6480 p5         1 HR4       1.344500
     30 S2           3.1490    -0.6920    -1.5650 sh         1 HR4      -0.550200
     31 O2P          3.7390    -3.6270    -1.0450 o          1 HR4      -0.660300
     32 H1           3.9920     2.8140    -1.6330 ha         1 HR4       0.156000
     33 H2           1.5960     2.2100    -1.5980 ha         1 HR4       0.146000
     34 H3           3.4360     5.2040     1.8780 ha         1 HR4       0.156000
     35 H4           1.0380     4.6080     1.9030 ha         1 HR4       0.146000
     36 H5          -0.8930     3.6390     0.7940 h1         1 HR4       0.086200
     37 H6          -0.7240     2.9400    -0.8240 h1         1 HR4       0.086200
     38 H7          -5.1440     3.2030    -0.6310 hn         1 HR4       0.452300
     39 H8          -6.6980     2.5800    -1.0370 hn         1 HR4       0.452300
     40 H9          -6.4860    -1.8720    -0.5720 h5         1 HR4       0.050100
     41 H10         -2.4220    -2.4000     1.2060 h2         1 HR4       0.111700
     42 H11         -1.5520    -1.9580    -1.4380 h1         1 HR4       0.083700
     43 H12         -2.1190    -4.0240    -0.7000 ho         1 HR4       0.426000
     44 H13          0.5020    -3.1670     1.4480 h1         1 HR4       0.095700
     45 H14          0.4660    -0.9520    -0.6650 h1         1 HR4       0.097700
     46 H15          1.9210    -0.4550     1.3280 h1         1 HR4       0.086700
     47 H16          2.0040    -1.6210     2.6640 h1         1 HR4       0.086700
     48 H17          4.2110    -0.3320    -0.8300 hs         1 HR4       0.328800
@<TRIPOS>BOND
     1     1     2 1   
     2     2     3 ar  
     3     2     5 ar  
     4     3     4 ar  
     5     3    32 1   
     6     4     7 ar  
     7     4    33 1   
     8     5     6 ar  
     9     5    34 1   
    10     6     7 ar  
    11     6    35 1   
    12     7     8 1   
    13     8     9 1   
    14     8    36 1   
    15     8    37 1   
    16     9    10 1   
    17    10    11 2   
    18    10    19 1   
    19    11    12 1   
    20    12    13 ar  
    21    12    18 ar  
    22    13    14 1   
    23    13    15 ar  
    24    14    38 1   
    25    14    39 1   
    26    15    16 ar  
    27    16    17 ar  
    28    16    40 1   
    29    17    18 ar  
    30    18    19 1   
    31    19    20 1   
    32    20    21 1   
    33    20    23 1   
    34    20    41 1   
    35    21    22 1   
    36    21    25 1   
    37    21    42 1   
    38    22    43 1   
    39    23    24 1   
    40    24    25 1   
    41    24    27 1   
    42    24    44 1   
    43    25    26 1   
    44    25    45 1   
    45    26    29 1   
    46    27    28 1   
    47    27    46 1   
    48    27    47 1   
    49    28    29 1   
    50    29    30 1   
    51    29    31 2   
    52    30    48 1   
@<TRIPOS>SUBSTRUCTURE
     1 HR4         1 TEMP              0 ****  ****    0 ROOT
