@<TRIPOS>MOLECULE
HR5
   32    33     1     0     0
SMALL
No Charge or Current Charge


@<TRIPOS>ATOM
      1 N1           3.2970    -0.6770    -0.1010 na         1 HR5       0.128800
      2 C4           4.7510    -0.8810    -0.2020 c3         1 HR5       0.065900
      3 C5           0.1370     1.1160     0.1210 c          1 HR5       0.654700
      4 C6          -2.3650     1.1470     0.2830 c3         1 HR5       0.114000
      5 C7          -3.3140    -0.0590     0.4110 cy         1 HR5      -0.104700
      6 C8          -4.8510     0.2000     0.2440 cy         1 HR5      -0.085400
      7 C10         -3.4800    -1.0340    -0.8090 cy         1 HR5      -0.085400
      8 O            0.2160     2.3360     0.1170 o          1 HR5      -0.623100
      9 N2          -1.0710     0.4690     0.2040 ns         1 HR5      -0.503900
     10 C9          -4.9300    -1.2740    -0.2730 cy         1 HR5      -0.092400
     11 C2           1.2990     0.2070     0.0400 cc         1 HR5      -0.285600
     12 C3           1.2550    -1.1940     0.0390 cc         1 HR5       0.265900
     13 N            2.4360    -1.7670    -0.0440 nd         1 HR5      -0.522800
     14 C1           2.6190     0.5530    -0.0510 cd         1 HR5      -0.060300
     15 C            3.2730     1.9150    -0.0930 c3         1 HR5      -0.043800
     16 H1           5.1210    -0.4150    -1.1230 h1         1 HR5       0.059033
     17 H2           5.2440    -0.4210     0.6630 h1         1 HR5       0.059033
     18 H3           4.9810    -1.9530    -0.2210 h1         1 HR5       0.059033
     19 H4          -2.5690     1.7130    -0.6360 h1         1 HR5       0.054200
     20 H5          -2.4250     1.7890     1.1720 h1         1 HR5       0.054200
     21 H6          -3.0800    -0.5770     1.3510 hc         1 HR5       0.051700
     22 H7          -5.4040     0.4160     1.1650 hc         1 HR5       0.052200
     23 H8          -5.1110     0.9590    -0.5040 hc         1 HR5       0.052200
     24 H9          -3.4320    -0.5510    -1.7930 hc         1 HR5       0.052200
     25 H10         -2.8230    -1.9110    -0.8190 hc         1 HR5       0.052200
     26 H11         -1.0560    -0.5410     0.1980 hn         1 HR5       0.311500
     27 H12         -5.0060    -2.0320     0.5170 hc         1 HR5       0.049200
     28 H13         -5.6940    -1.4770    -1.0300 hc         1 HR5       0.049200
     29 H14          0.3810    -1.8290     0.0980 h4         1 HR5       0.036100
     30 H15          2.9190     2.4900    -0.9560 hc         1 HR5       0.062700
     31 H16          3.0370     2.4880     0.8110 hc         1 HR5       0.062700
     32 H17          4.3650     1.8510    -0.1660 hc         1 HR5       0.062700
@<TRIPOS>BOND
     1     1     2 1   
     2     1    13 1   
     3     1    14 1   
     4     2    16 1   
     5     2    17 1   
     6     2    18 1   
     7     3     8 2   
     8     3     9 1   
     9     3    11 1   
    10     4     5 1   
    11     4     9 1   
    12     4    19 1   
    13     4    20 1   
    14     5     6 1   
    15     5     7 1   
    16     5    21 1   
    17     6    10 1   
    18     6    22 1   
    19     6    23 1   
    20     7    10 1   
    21     7    24 1   
    22     7    25 1   
    23     9    26 1   
    24    10    27 1   
    25    10    28 1   
    26    11    12 1   
    27    11    14 2   
    28    12    13 2   
    29    12    29 1   
    30    14    15 1   
    31    15    30 1   
    32    15    31 1   
    33    15    32 1   
@<TRIPOS>SUBSTRUCTURE
     1 HR5         1 TEMP              0 ****  ****    0 ROOT
