@<TRIPOS>MOLECULE
HR5
   32    33     1     0     0
SMALL
bcc


@<TRIPOS>ATOM
      1 N1           3.3850    -0.5970    -0.1220 na         1 HR5       0.107400
      2 C4           4.8260    -0.6320    -0.2120 c3         1 HR5       0.036600
      3 C5           0.0750     0.8480     0.0060 c          1 HR5       0.721700
      4 C6          -2.3160     0.8610     0.5990 c3         1 HR5       0.114000
      5 C7          -3.3960    -0.1950     0.5380 cy         1 HR5      -0.104700
      6 C8          -4.8500     0.2870     0.3610 cy         1 HR5      -0.085400
      7 C10         -3.5450    -1.0070    -0.7650 cy         1 HR5      -0.085400
      8 O            0.0320     1.9750    -0.4790 o          1 HR5      -0.623100
      9 N2          -1.0030     0.2550     0.5530 ns         1 HR5      -0.570900
     10 C9          -5.0750    -0.8770    -0.6240 cy         1 HR5      -0.092400
     11 C2           1.3050     0.0410     0.0120 cc         1 HR5      -0.350900
     12 C3           1.4420    -1.3540     0.1670 cc         1 HR5       0.331200
     13 N            2.6990    -1.7250     0.0830 nd         1 HR5      -0.522800
     14 C1           2.6050     0.4950    -0.1740 cd         1 HR5      -0.009600
     15 C            3.1730     1.8530    -0.3740 c3         1 HR5      -0.043800
     16 H1           5.1700     0.0310    -1.0020 h1         1 HR5       0.059033
     17 H2           5.2860    -0.3300     0.7290 h1         1 HR5       0.059033
     18 H3           5.1310    -1.6470    -0.4480 h1         1 HR5       0.059033
     19 H4          -2.4170     1.5340    -0.2530 h1         1 HR5       0.054200
     20 H5          -2.4330     1.4700     1.5030 h1         1 HR5       0.054200
     21 H6          -3.3210    -0.8660     1.4000 hc         1 HR5       0.051700
     22 H7          -5.4800     0.3340     1.2480 hc         1 HR5       0.052200
     23 H8          -4.8890     1.2560    -0.1420 hc         1 HR5       0.052200
     24 H9          -3.1650    -0.4520    -1.6250 hc         1 HR5       0.052200
     25 H10         -3.1220    -2.0110    -0.7880 hc         1 HR5       0.052200
     26 H11         -0.8780    -0.6060     1.0600 hn         1 HR5       0.311500
     27 H12         -5.5110    -1.7460    -0.1310 hc         1 HR5       0.049200
     28 H13         -5.6480    -0.6670    -1.5260 hc         1 HR5       0.049200
     29 H14          0.6700    -2.0960     0.3100 h4         1 HR5       0.036100
     30 H15          3.6190     1.9500    -1.3660 hc         1 HR5       0.062700
     31 H16          2.3990     2.6070    -0.2810 hc         1 HR5       0.062700
     32 H17          3.9540     2.0670     0.3570 hc         1 HR5       0.062700
@<TRIPOS>BOND
     1     1     2 1   
     2     1    13 1   
     3     1    14 1   
     4     2    16 1   
     5     2    17 1   
     6     2    18 1   
     7     3     8 2   
     8     3     9 1   
     9     3    11 1   
    10     4     5 1   
    11     4     9 1   
    12     4    19 1   
    13     4    20 1   
    14     5     6 1   
    15     5     7 1   
    16     5    21 1   
    17     6    10 1   
    18     6    22 1   
    19     6    23 1   
    20     7    10 1   
    21     7    24 1   
    22     7    25 1   
    23     9    26 1   
    24    10    27 1   
    25    10    28 1   
    26    11    12 1   
    27    11    14 2   
    28    12    13 2   
    29    12    29 1   
    30    14    15 1   
    31    15    30 1   
    32    15    31 1   
    33    15    32 1   
@<TRIPOS>SUBSTRUCTURE
     1 HR5         1 TEMP              0 ****  ****    0 ROOT
