@<TRIPOS>MOLECULE
HR6
   48    52     1     0     0
SMALL
No Charge or Current Charge


@<TRIPOS>ATOM
      1 S1P         -3.5130     0.5290    -0.9570 sh         1 HR6      -0.545200
      2 P           -3.2370     2.5340    -0.3990 p5         1 HR6       1.113200
      3 O2P         -4.2640     3.4650    -0.9360 o          1 HR6      -0.436000
      4 O5          -3.1710     2.4570     1.2220 os         1 HR6      -0.572400
      5 C5          -2.1020     1.7160     1.8650 c6         1 HR6       0.208600
      6 O3          -1.7090     2.8700    -0.8470 os         1 HR6      -0.497400
      7 C3          -0.7230     1.9830    -0.2630 c5         1 HR6       0.140300
      8 C2           0.7320     2.4340    -0.5480 c5         1 HR6       0.150300
      9 O2           0.8470     3.8700    -0.5260 oh         1 HR6      -0.687000
     10 C4          -0.7620     2.1780     1.2600 c5         1 HR6       0.073300
     11 O4           0.4050     1.4480     1.6740 os         1 HR6      -0.416000
     12 C1           1.4440     1.7440     0.6930 c5         1 HR6       0.271300
     13 N9           2.2460     0.5480     0.3990 na         1 HR6      -0.287300
     14 C17          3.5930     0.5070     0.1330 ca         1 HR6       0.130500
     15 N3           4.5110     1.4950     0.1260 nb         1 HR6      -0.236000
     16 C16          5.7780     1.1280    -0.1790 ca         1 HR6       0.188900
     17 N1           6.2100    -0.1200    -0.4770 nb         1 HR6      -0.296000
     18 C6           5.2750    -1.0820    -0.4670 ca         1 HR6       0.451900
     19 N6           5.7080    -2.3370    -0.7650 nv         1 HR6      -1.057900
     20 C7           3.9280    -0.7970    -0.1570 ca         1 HR6      -0.086600
     21 N7           2.8390    -1.6590    -0.0930 nc         1 HR6      -0.563100
     22 C8           1.8670    -0.8030     0.2460 cd         1 HR6       0.432700
     23 S2           0.1910    -1.3270     0.4590 ss         1 HR6      -0.229200
     24 C9           0.2160    -3.0920    -0.0790 c3         1 HR6       0.111900
     25 C10         -1.1790    -3.6960     0.0180 ca         1 HR6      -0.102300
     26 C15         -1.4560    -4.7100     0.9570 ca         1 HR6      -0.087500
     27 C14         -2.7460    -5.2610     1.0450 ca         1 HR6      -0.112500
     28 C11         -2.2080    -3.2380    -0.8290 ca         1 HR6      -0.087500
     29 C12         -3.4980    -3.7870    -0.7390 ca         1 HR6      -0.112500
     30 C13         -3.7680    -4.8000     0.1980 ca         1 HR6      -0.102000
     31 H1          -4.5990     0.9690    -1.6380 hs         1 HR6       0.327800
     32 H2          -2.1180     1.9160     2.9460 h1         1 HR6       0.087700
     33 H3          -2.2470     0.6370     1.7110 h1         1 HR6       0.087700
     34 H4          -0.8900     0.9450    -0.5760 h1         1 HR6       0.098700
     35 H5           1.0980     2.0270    -1.5010 h1         1 HR6       0.082700
     36 H6           0.0070     4.2050    -0.9230 ho         1 HR6       0.524000
     37 H7          -0.6250     3.2340     1.5320 h1         1 HR6       0.092700
     38 H8           2.1500     2.4630     1.1280 h2         1 HR6       0.110700
     39 H9           6.5270     1.9190    -0.1850 h5         1 HR6       0.050100
     40 H10          6.7020    -2.5310    -0.6810 hn         1 HR6       0.507500
     41 H11          5.0730    -3.1030    -0.5540 hn         1 HR6       0.507500
     42 H12          0.5710    -3.1460    -1.1160 h1         1 HR6       0.084200
     43 H13          0.9190    -3.6490     0.5540 h1         1 HR6       0.084200
     44 H14         -0.6720    -5.0720     1.6200 ha         1 HR6       0.121500
     45 H15         -2.9550    -6.0430     1.7710 ha         1 HR6       0.118000
     46 H16         -2.0090    -2.4510    -1.5540 ha         1 HR6       0.121500
     47 H17         -4.2890    -3.4270    -1.3930 ha         1 HR6       0.118000
     48 H18         -4.7670    -5.2250     0.2680 ha         1 HR6       0.114000
@<TRIPOS>BOND
     1     1     2 1   
     2     1    31 1   
     3     2     3 2   
     4     2     4 1   
     5     2     6 1   
     6     4     5 1   
     7     5    10 1   
     8     5    32 1   
     9     5    33 1   
    10     6     7 1   
    11     7     8 1   
    12     7    10 1   
    13     7    34 1   
    14     8     9 1   
    15     8    12 1   
    16     8    35 1   
    17     9    36 1   
    18    10    11 1   
    19    10    37 1   
    20    11    12 1   
    21    12    13 1   
    22    12    38 1   
    23    13    14 1   
    24    13    22 1   
    25    14    15 ar  
    26    14    20 ar  
    27    15    16 ar  
    28    16    17 ar  
    29    16    39 1   
    30    17    18 ar  
    31    18    19 1   
    32    18    20 ar  
    33    19    40 1   
    34    19    41 1   
    35    20    21 1   
    36    21    22 2   
    37    22    23 1   
    38    23    24 1   
    39    24    25 1   
    40    24    42 1   
    41    24    43 1   
    42    25    26 ar  
    43    25    28 ar  
    44    26    27 ar  
    45    26    44 1   
    46    27    30 ar  
    47    27    45 1   
    48    28    29 ar  
    49    28    46 1   
    50    29    30 ar  
    51    29    47 1   
    52    30    48 1   
@<TRIPOS>SUBSTRUCTURE
     1 HR6         1 TEMP              0 ****  ****    0 ROOT
