@<TRIPOS>MOLECULE
HR6
   48    52     1     0     0
SMALL
abcg2


@<TRIPOS>ATOM
      1 S1P         -3.5350     0.4380    -1.3020 sh         1 HR6      -0.545200
      2 P           -3.2230     2.3190    -0.4590 p5         1 HR6       1.113200
      3 O2P         -4.1840     3.3670    -0.8310 o          1 HR6      -0.436000
      4 O5          -3.1470     2.1000     1.1270 os         1 HR6      -0.572400
      5 C5          -2.0760     1.3680     1.7510 c6         1 HR6       0.208600
      6 O3          -1.7150     2.6240    -0.9350 os         1 HR6      -0.497400
      7 C3          -0.7090     1.8660    -0.2820 c5         1 HR6       0.140300
      8 C2           0.7220     2.3000    -0.5350 c5         1 HR6       0.150300
      9 O2           0.7750     3.6930    -0.5380 oh         1 HR6      -0.687000
     10 C4          -0.8000     1.9960     1.2300 c5         1 HR6       0.073300
     11 O4           0.3870     1.3720     1.6620 os         1 HR6      -0.416000
     12 C1           1.4020     1.6960     0.7370 c5         1 HR6       0.271300
     13 N9           2.1820     0.5090     0.4810 na         1 HR6      -0.287300
     14 C17          3.5020     0.5500     0.1180 ca         1 HR6       0.130500
     15 N3           4.2810     1.6210     0.0120 nb         1 HR6      -0.236000
     16 C16          5.5060     1.2950    -0.3690 ca         1 HR6       0.188900
     17 N1           5.9900     0.0860    -0.6350 nb         1 HR6      -0.296000
     18 C6           5.1880    -0.9800    -0.5280 ca         1 HR6       0.451900
     19 N6           5.6680    -2.1920    -0.8110 nv         1 HR6      -1.057900
     20 C7           3.8570    -0.7610    -0.1310 ca         1 HR6      -0.086600
     21 N7           2.7920    -1.6000     0.0740 nc         1 HR6      -0.563100
     22 C8           1.8140    -0.8180     0.4260 cd         1 HR6       0.432700
     23 S2           0.2030    -1.3660     0.8050 ss         1 HR6      -0.229200
     24 C9           0.2470    -3.0220     0.0390 c3         1 HR6       0.111900
     25 C10         -1.1580    -3.5450     0.0730 ca         1 HR6      -0.102300
     26 C15         -1.5530    -4.4580     1.0450 ca         1 HR6      -0.087500
     27 C14         -2.8600    -4.9260     1.0840 ca         1 HR6      -0.112500
     28 C11         -2.0950    -3.0950    -0.8550 ca         1 HR6      -0.087500
     29 C12         -3.4010    -3.5610    -0.8180 ca         1 HR6      -0.112500
     30 C13         -3.7870    -4.4790     0.1520 ca         1 HR6      -0.102000
     31 H1          -4.6900     0.2110    -0.6610 hs         1 HR6       0.327800
     32 H2          -2.2000     1.4900     2.8250 h1         1 HR6       0.087700
     33 H3          -2.1490     0.3060     1.5040 h1         1 HR6       0.087700
     34 H4          -0.7980     0.8090    -0.5630 h1         1 HR6       0.098700
     35 H5           1.1450     1.8630    -1.4450 h1         1 HR6       0.082700
     36 H6           1.6600     3.9730    -0.7920 ho         1 HR6       0.524000
     37 H7          -0.8030     3.0570     1.5150 h1         1 HR6       0.092700
     38 H8           2.0900     2.4350     1.1590 h2         1 HR6       0.110700
     39 H9           6.2070     2.1150    -0.4790 h5         1 HR6       0.050100
     40 H10          6.6460    -2.3110    -1.0140 hn         1 HR6       0.507500
     41 H11          5.1160    -3.0160    -0.6510 hn         1 HR6       0.507500
     42 H12          0.6180    -2.9200    -0.9800 h1         1 HR6       0.084200
     43 H13          0.9290    -3.6610     0.5970 h1         1 HR6       0.084200
     44 H14         -0.8330    -4.8120     1.7730 ha         1 HR6       0.121500
     45 H15         -3.1530    -5.6400     1.8430 ha         1 HR6       0.118000
     46 H16         -1.8020    -2.3770    -1.6110 ha         1 HR6       0.121500
     47 H17         -4.1190    -3.2090    -1.5480 ha         1 HR6       0.118000
     48 H18         -4.8050    -4.8440     0.1800 ha         1 HR6       0.114000
@<TRIPOS>BOND
     1     1     2 1   
     2     1    31 1   
     3     2     3 2   
     4     2     4 1   
     5     2     6 1   
     6     4     5 1   
     7     5    10 1   
     8     5    32 1   
     9     5    33 1   
    10     6     7 1   
    11     7     8 1   
    12     7    10 1   
    13     7    34 1   
    14     8     9 1   
    15     8    12 1   
    16     8    35 1   
    17     9    36 1   
    18    10    11 1   
    19    10    37 1   
    20    11    12 1   
    21    12    13 1   
    22    12    38 1   
    23    13    14 1   
    24    13    22 1   
    25    14    15 ar  
    26    14    20 ar  
    27    15    16 ar  
    28    16    17 ar  
    29    16    39 1   
    30    17    18 ar  
    31    18    19 1   
    32    18    20 ar  
    33    19    40 1   
    34    19    41 1   
    35    20    21 1   
    36    21    22 2   
    37    22    23 1   
    38    23    24 1   
    39    24    25 1   
    40    24    42 1   
    41    24    43 1   
    42    25    26 ar  
    43    25    28 ar  
    44    26    27 ar  
    45    26    44 1   
    46    27    30 ar  
    47    27    45 1   
    48    28    29 ar  
    49    28    46 1   
    50    29    30 ar  
    51    29    47 1   
    52    30    48 1   
@<TRIPOS>SUBSTRUCTURE
     1 HR6         1 TEMP              0 ****  ****    0 ROOT
