@<TRIPOS>MOLECULE
HR7
   28    27     1     0     0
SMALL
bcc


@<TRIPOS>ATOM
      1 N            1.2850     0.8980    -1.1070 n8         1 HR7      -0.901800
      2 CB           1.5060     0.0990     0.0960 c3         1 HR7       0.175500
      3 CG           0.3050    -0.8150     0.3290 c3         1 HR7      -0.072400
      4 CD          -1.0150    -0.0800     0.5160 c3         1 HR7      -0.087400
      5 CE          -2.1970    -1.0340     0.6880 c3         1 HR7       0.126800
      6 NZ          -3.4460    -0.3580     0.9500 n2         1 HR7      -0.725900
      7 CH          -4.1280     0.0890    -0.0360 c2         1 HR7       0.774100
      8 NH2         -5.2680     0.8280     0.2070 nv         1 HR7      -0.934300
      9 NH1         -3.8630    -0.0890    -1.3740 nv         1 HR7      -0.934300
     10 O            4.0500     1.3320     0.0590 o          1 HR7      -0.844800
     11 CA           2.7990    -0.7130     0.0650 c3         1 HR7      -0.243400
     12 OXT          5.1430    -0.5800    -0.2560 o          1 HR7      -0.844800
     13 HN1          2.1110     1.4660    -1.2530 hn         1 HR7       0.339300
     14 HN2          1.2320     0.2760    -1.9070 hn         1 HR7       0.339300
     15 HB           1.5650     0.8010     0.9350 h1         1 HR7       0.066700
     16 HG2          0.2210    -1.5120    -0.5150 hc         1 HR7       0.022700
     17 HG3          0.4980    -1.4380     1.2090 hc         1 HR7       0.022700
     18 HA           2.8730    -1.3200     0.9770 hc         1 HR7       0.021700
     19 HA2          2.7500    -1.4380    -0.7570 hc         1 HR7       0.021700
     20 HD2         -0.9540     0.5710     1.3950 hc         1 HR7       0.048200
     21 HD3         -1.1850     0.5800    -0.3390 hc         1 HR7       0.048200
     22 HE2         -2.2420    -1.7060    -0.1830 h1         1 HR7       0.031200
     23 HE3         -1.9880    -1.6900     1.5400 h1         1 HR7       0.031200
     24 HH11        -2.9200    -0.3330    -1.6220 hn         1 HR7       0.399050
     25 HH12        -4.2520     0.5950    -2.0030 hn         1 HR7       0.399050
     26 HH21        -5.6060     0.7310     1.1510 hn         1 HR7       0.399050
     27 HH22        -6.0110     0.7240    -0.4680 hn         1 HR7       0.399050
     28 C            4.1080     0.0890    -0.0610 c          1 HR7       0.922600
@<TRIPOS>BOND
     1     1     2 1   
     2     1    13 1   
     3     1    14 1   
     4     2     3 1   
     5     2    11 1   
     6     2    15 1   
     7     3     4 1   
     8     3    16 1   
     9     3    17 1   
    10     4     5 1   
    11     4    20 1   
    12     4    21 1   
    13     5     6 1   
    14     5    22 1   
    15     5    23 1   
    16     6     7 2   
    17     7     8 1   
    18     7     9 1   
    19     8    26 1   
    20     8    27 1   
    21     9    24 1   
    22     9    25 1   
    23    10    28 1   
    24    11    18 1   
    25    11    19 1   
    26    11    28 1   
    27    12    28 1   
@<TRIPOS>SUBSTRUCTURE
     1 HR7         1 TEMP              0 ****  ****    0 ROOT
