@<TRIPOS>MOLECULE
HR7
   28    27     1     0     0
SMALL
No Charge or Current Charge


@<TRIPOS>ATOM
      1 N            1.6580     0.8670    -1.1800 n8         1 HR7      -1.012200
      2 CB           1.6830     0.0880     0.0680 c3         1 HR7       0.175500
      3 CG           0.3800    -0.7420     0.2280 c3         1 HR7      -0.072400
      4 CD          -0.9110     0.1050     0.3540 c3         1 HR7      -0.087400
      5 CE          -2.1730    -0.7570     0.5740 c3         1 HR7       0.126800
      6 NZ          -3.3620     0.1040     0.7150 n2         1 HR7      -0.725900
      7 CH          -4.3380     0.1040    -0.0760 c2         1 HR7       0.774100
      8 NH2         -5.3980     0.8490     0.0510 nv         1 HR7      -1.044700
      9 NH1         -4.5300    -0.5910    -1.1670 nv         1 HR7      -1.044700
     10 O            4.5300     0.3010     1.4650 o          1 HR7      -0.739500
     11 CA           2.9480    -0.7960     0.0830 c3         1 HR7      -0.243400
     12 OXT          4.7730     0.5190    -0.6640 o          1 HR7      -0.739500
     13 HN1          2.6240     1.1500    -1.3840 hn         1 HR7       0.394500
     14 HN2          1.4370     0.2290    -1.9510 hn         1 HR7       0.394500
     15 HB           1.7490     0.7880     0.9150 h1         1 HR7       0.066700
     16 HG2          0.2790    -1.4340    -0.6180 hc         1 HR7       0.022700
     17 HG3          0.4680    -1.3640     1.1280 hc         1 HR7       0.022700
     18 HA           2.8240    -1.4820     0.9310 hc         1 HR7       0.021700
     19 HA2          2.9960    -1.3100    -0.8850 hc         1 HR7       0.021700
     20 HD2         -0.8010     0.8030     1.1930 hc         1 HR7       0.048200
     21 HD3         -1.0460     0.7080    -0.5520 hc         1 HR7       0.048200
     22 HE2         -2.2660    -1.4630    -0.2620 h1         1 HR7       0.031200
     23 HE3         -2.0370    -1.3570     1.4850 h1         1 HR7       0.031200
     24 HH11        -3.6680    -0.9950    -1.5010 hn         1 HR7       0.454250
     25 HH12        -5.0180    -0.0420    -1.8580 hn         1 HR7       0.454250
     26 HH21        -5.3890     1.3110     0.9500 hn         1 HR7       0.454250
     27 HH22        -6.2370     0.3140    -0.1180 hn         1 HR7       0.454250
     28 C            4.1950     0.0680     0.3130 c          1 HR7       0.712000
@<TRIPOS>BOND
     1     1     2 1   
     2     1    13 1   
     3     1    14 1   
     4     2     3 1   
     5     2    11 1   
     6     2    15 1   
     7     3     4 1   
     8     3    16 1   
     9     3    17 1   
    10     4     5 1   
    11     4    20 1   
    12     4    21 1   
    13     5     6 1   
    14     5    22 1   
    15     5    23 1   
    16     6     7 2   
    17     7     8 1   
    18     7     9 1   
    19     8    26 1   
    20     8    27 1   
    21     9    24 1   
    22     9    25 1   
    23    10    28 1   
    24    11    18 1   
    25    11    19 1   
    26    11    28 1   
    27    12    28 1   
@<TRIPOS>SUBSTRUCTURE
     1 HR7         1 TEMP              0 ****  ****    0 ROOT
