@<TRIPOS>MOLECULE
HR8
   32    32     1     0     0
SMALL
abcg2


@<TRIPOS>ATOM
      1 N1          -1.6480     0.5580    -0.7380 ns         1 HR8      -0.500900
      2 C4           3.3390     0.3270    -0.4560 ca         1 HR8      -0.050000
      3 C5           2.6330     1.0190    -1.4220 ca         1 HR8       0.073000
      4 C6           1.2770     0.7900    -1.6010 ca         1 HR8      -0.044000
      5 C7           0.6270    -0.1480    -0.8170 ca         1 HR8      -0.183600
      6 C8          -0.8240    -0.4500    -1.0540 c          1 HR8       0.627700
      7 C10         -3.8040     0.2950     0.4790 c3         1 HR8      -0.082700
      8 C1           1.2660    -2.4300     1.9370 c3         1 HR8       0.146900
      9 C2           1.3310    -0.8520     0.1680 ca         1 HR8       0.181100
     10 C3           2.6890    -0.6040     0.3430 ca         1 HR8      -0.199000
     11 CL1          3.4430     2.1840    -2.4180 cl         1 HR8      -0.199000
     12 O2          -1.1820    -1.5210    -1.5180 o          1 HR8      -0.581100
     13 C9          -3.0880     0.5090    -0.8550 c3         1 HR8       0.101000
     14 C11         -5.3110     0.3740     0.2580 c3         1 HR8      -0.087600
     15 C12         -3.4140    -1.0230     1.1370 c3         1 HR8      -0.087600
     16 H1          -1.2480     1.3800    -0.3140 hn         1 HR8       0.312500
     17 H2           4.3960     0.5080    -0.3100 ha         1 HR8       0.129000
     18 H3           0.7270     1.3340    -2.3590 ha         1 HR8       0.136000
     19 H4          -3.5160     1.1130     1.1490 hc         1 HR8       0.040700
     20 H5           2.0650    -3.0660     1.5480 h1         1 HR8       0.045033
     21 H6           1.6800    -1.7600     2.6940 h1         1 HR8       0.045033
     22 H7           0.5100    -3.0590     2.3990 h1         1 HR8       0.045033
     23 H8           3.2640    -1.1200     1.0990 ha         1 HR8       0.125000
     24 H9          -3.4220     1.4480    -1.3030 h1         1 HR8       0.056200
     25 H10         -3.3480    -0.2890    -1.5520 h1         1 HR8       0.056200
     26 H11         -5.8530     0.2530     1.1970 hc         1 HR8       0.036533
     27 H12         -5.6030     1.3340    -0.1710 hc         1 HR8       0.036533
     28 H13         -5.6480    -0.4110    -0.4220 hc         1 HR8       0.036533
     29 H14         -2.3410    -1.0900     1.3200 hc         1 HR8       0.036533
     30 H15         -3.9170    -1.1370     2.0990 hc         1 HR8       0.036533
     31 H16         -3.7010    -1.8730     0.5120 hc         1 HR8       0.036533
     32 O1           0.6150    -1.7160     0.9020 os         1 HR8      -0.325100
@<TRIPOS>BOND
     1     1     6 1   
     2     1    13 1   
     3     1    16 1   
     4     2     3 ar  
     5     2    10 ar  
     6     2    17 1   
     7     3     4 ar  
     8     3    11 1   
     9     4     5 ar  
    10     4    18 1   
    11     5     6 1   
    12     5     9 ar  
    13     6    12 2   
    14     7    13 1   
    15     7    14 1   
    16     7    15 1   
    17     7    19 1   
    18     8    20 1   
    19     8    21 1   
    20     8    22 1   
    21     8    32 1   
    22     9    10 ar  
    23     9    32 1   
    24    10    23 1   
    25    13    24 1   
    26    13    25 1   
    27    14    26 1   
    28    14    27 1   
    29    14    28 1   
    30    15    29 1   
    31    15    30 1   
    32    15    31 1   
@<TRIPOS>SUBSTRUCTURE
     1 HR8         1 TEMP              0 ****  ****    0 ROOT
