@<TRIPOS>MOLECULE
HR8
   32    32     1     0     0
SMALL
No Charge or Current Charge


@<TRIPOS>ATOM
      1 N1          -1.7390     0.3670    -0.9080 ns         1 HR8      -0.500900
      2 C4           3.3080     0.5020    -0.2820 ca         1 HR8      -0.050000
      3 C5           2.4100     1.3010    -1.0000 ca         1 HR8       0.073000
      4 C6           1.0650     0.9190    -1.1190 ca         1 HR8      -0.044000
      5 C7           0.5920    -0.2760    -0.5190 ca         1 HR8      -0.183600
      6 C8          -0.8620    -0.6730    -0.6710 c          1 HR8       0.627700
      7 C10         -3.9830     0.5590     0.2110 c3         1 HR8      -0.082700
      8 C1           1.9100    -3.0980     1.5940 c3         1 HR8       0.146900
      9 C2           1.5060    -1.0820     0.2090 ca         1 HR8       0.181100
     10 C3           2.8600    -0.6840     0.3210 ca         1 HR8      -0.199000
     11 Cl1          2.9720     2.7830    -1.7620 cl         1 HR8      -0.199000
     12 O2          -1.2510    -1.8330    -0.6470 o          1 HR8      -0.581100
     13 C9          -3.1900     0.2270    -1.0780 c3         1 HR8       0.101000
     14 C11         -5.5040     0.5490    -0.0600 c3         1 HR8      -0.087600
     15 C12         -3.6250    -0.3690     1.3970 c3         1 HR8      -0.087600
     16 H1          -1.3490     1.3000    -0.8950 hn         1 HR8       0.312500
     17 H2           4.3490     0.8020    -0.1920 ha         1 HR8       0.129000
     18 H3           0.4060     1.5540    -1.7050 ha         1 HR8       0.136000
     19 H4          -3.7170     1.5820     0.5060 hc         1 HR8       0.040700
     20 H5           2.7180    -3.4980     0.9670 h1         1 HR8       0.045033
     21 H6           2.3520    -2.5630     2.4430 h1         1 HR8       0.045033
     22 H7           1.3370    -3.9460     1.9890 h1         1 HR8       0.045033
     23 H8           3.5800    -1.2770     0.8750 ha         1 HR8       0.125000
     24 H9          -3.5020     0.9110    -1.8790 h1         1 HR8       0.056200
     25 H10         -3.4300    -0.7930    -1.4070 h1         1 HR8       0.056200
     26 H11         -6.0610     0.8460     0.8380 hc         1 HR8       0.036533
     27 H12         -5.7600     1.2520    -0.8620 hc         1 HR8       0.036533
     28 H13         -5.8410    -0.4510    -0.3590 hc         1 HR8       0.036533
     29 H14         -2.5670    -0.2730     1.6690 hc         1 HR8       0.036533
     30 H15         -4.2190    -0.1130     2.2820 hc         1 HR8       0.036533
     31 H16         -3.8220    -1.4180     1.1440 hc         1 HR8       0.036533
     32 O1           1.0520    -2.2300     0.8310 os         1 HR8      -0.325100
@<TRIPOS>BOND
     1     1     6 1   
     2     1    13 1   
     3     1    16 1   
     4     2     3 ar  
     5     2    10 ar  
     6     2    17 1   
     7     3     4 ar  
     8     3    11 1   
     9     4     5 ar  
    10     4    18 1   
    11     5     6 1   
    12     5     9 ar  
    13     6    12 2   
    14     7    13 1   
    15     7    14 1   
    16     7    15 1   
    17     7    19 1   
    18     8    20 1   
    19     8    21 1   
    20     8    22 1   
    21     8    32 1   
    22     9    10 ar  
    23     9    32 1   
    24    10    23 1   
    25    13    24 1   
    26    13    25 1   
    27    14    26 1   
    28    14    27 1   
    29    14    28 1   
    30    15    29 1   
    31    15    30 1   
    32    15    31 1   
@<TRIPOS>SUBSTRUCTURE
     1 HR8         1 TEMP              0 ****  ****    0 ROOT
