@<TRIPOS>MOLECULE
HR9
   39    40     1     0     0
SMALL
abcg2


@<TRIPOS>ATOM
      1 C10         -2.2260    10.1580   -25.5800 c3         1 HR9      -0.068400
      2 C13          0.3940    10.0850   -23.2060 ca         1 HR9      -0.104000
      3 C15          1.6840    12.1010   -22.9510 ca         1 HR9      -0.120000
      4 C17          0.5530    11.6330   -25.0240 ca         1 HR9      -0.104000
      5 C1         -10.3010    13.3450   -23.1600 c          1 HR9       0.619500
      6 C2          -6.2400    11.7170   -20.6450 c          1 HR9       0.725600
      7 C3          -6.3640    11.6150   -23.2280 ca         1 HR9       0.285000
      8 C4          -7.1380    11.9000   -24.3730 ca         1 HR9       0.181900
      9 C5          -8.9050    12.7320   -23.1770 ca         1 HR9       0.204500
     10 C6          -8.2160    12.4910   -21.9920 ca         1 HR9      -0.065000
     11 C7          -6.9450    11.9380   -21.9770 ca         1 HR9      -0.222600
     12 C8          -4.4230    10.8770   -24.5660 c3         1 HR9       0.257800
     13 C9          -3.0260    10.3410   -24.2980 c3         1 HR9      -0.095400
     14 C11         -0.8360     9.5600   -25.3500 c3         1 HR9      -0.031100
     15 C12          0.0570    10.4340   -24.5120 ca         1 HR9      -0.064300
     16 C14          1.2000    10.9090   -22.4300 ca         1 HR9      -0.110000
     17 C16          1.3570    12.4600   -24.2530 ca         1 HR9      -0.110000
     18 N1          -8.3450    12.4310   -24.3490 nb         1 HR9      -0.634000
     19 N2          -5.1380    11.0520   -23.3290 nu         1 HR9      -1.008200
     20 O1         -10.7710    13.6020   -22.0310 o          1 HR9      -0.739500
     21 O2         -10.8560    13.5360   -24.2580 o          1 HR9      -0.739500
     22 O3          -5.0640    11.2780   -20.6870 o          1 HR9      -0.745000
     23 O4          -6.8770    11.9900   -19.6150 o          1 HR9      -0.745000
     24 H08         -2.1270    11.1210   -26.0910 hc         1 HR9       0.034200
     25 H09         -2.7760     9.5040   -26.2630 hc         1 HR9       0.034200
     26 H12          0.0210     9.1560   -22.7910 ha         1 HR9       0.110000
     27 H14          2.3120    12.7440   -22.3490 ha         1 HR9       0.101000
     28 H16          0.3080    11.9210   -26.0400 ha         1 HR9       0.110000
     29 H01         -6.7360    11.6760   -25.3570 h4         1 HR9      -0.037900
     30 H02         -8.6800    12.7440   -21.0510 ha         1 HR9       0.148000
     31 H05         -4.3490    11.8250   -25.1180 h1         1 HR9       0.006700
     32 H04         -4.9550    10.1810   -25.2270 h1         1 HR9       0.006700
     33 H07         -3.0990     9.3840   -23.7710 hc         1 HR9       0.050700
     34 H06         -2.5030    11.0280   -23.6270 hc         1 HR9       0.050700
     35 H10         -0.9400     8.5800   -24.8750 hc         1 HR9       0.035200
     36 H11         -0.3650     9.3850   -26.3210 hc         1 HR9       0.035200
     37 H13          1.4480    10.6180   -21.4170 ha         1 HR9       0.103500
     38 H15          1.7330    13.3860   -24.6700 ha         1 HR9       0.103500
     39 H03         -4.6500    10.9930   -22.4380 hn         1 HR9       0.542000
@<TRIPOS>BOND
     1     1    13 1   
     2     1    14 1   
     3     1    24 1   
     4     1    25 1   
     5     2    15 ar  
     6     2    16 ar  
     7     2    26 1   
     8     3    16 ar  
     9     3    17 ar  
    10     3    27 1   
    11     4    15 ar  
    12     4    17 ar  
    13     4    28 1   
    14     5     9 1   
    15     5    20 1   
    16     5    21 1   
    17     6    11 1   
    18     6    22 1   
    19     6    23 1   
    20     7     8 ar  
    21     7    11 ar  
    22     7    19 1   
    23     8    18 ar  
    24     8    29 1   
    25     9    10 ar  
    26     9    18 ar  
    27    10    11 ar  
    28    10    30 1   
    29    12    13 1   
    30    12    19 1   
    31    12    31 1   
    32    12    32 1   
    33    13    33 1   
    34    13    34 1   
    35    14    15 1   
    36    14    35 1   
    37    14    36 1   
    38    16    37 1   
    39    17    38 1   
    40    19    39 1   
@<TRIPOS>SUBSTRUCTURE
     1 HR9         1 TEMP              0 ****  ****    0 ROOT
