@<TRIPOS>MOLECULE
HR9
   39    40     1     0     0
SMALL
No Charge or Current Charge


@<TRIPOS>ATOM
      1 C10         -2.1600    10.2020   -25.6590 c3         1 HR9      -0.068400
      2 C13          0.3690    10.0150   -23.1710 ca         1 HR9      -0.104000
      3 C15          1.7340    11.9970   -22.8040 ca         1 HR9      -0.120000
      4 C17          0.6750    11.6290   -24.9650 ca         1 HR9      -0.104000
      5 C1         -10.4830    13.2560   -22.9850 c          1 HR9       0.619500
      6 C2          -6.0540    12.0110   -20.7840 c          1 HR9       0.725600
      7 C3          -6.4760    11.5650   -23.2880 ca         1 HR9       0.285000
      8 C4          -7.3760    11.6440   -24.3880 ca         1 HR9       0.181900
      9 C5          -9.0580    12.6480   -23.1110 ca         1 HR9       0.204500
     10 C6          -8.2190    12.5980   -21.9690 ca         1 HR9      -0.065000
     11 C7          -6.9090    12.0550   -22.0350 ca         1 HR9      -0.222600
     12 C8          -4.4200    10.9170   -24.6630 c3         1 HR9       0.257800
     13 C9          -3.0220    10.3340   -24.3810 c3         1 HR9      -0.095400
     14 C11         -0.7670     9.5810   -25.4100 c3         1 HR9      -0.031100
     15 C12          0.1120    10.4260   -24.4950 ca         1 HR9      -0.064300
     16 C14          1.1760    10.7990   -22.3290 ca         1 HR9      -0.110000
     17 C16          1.4840    12.4120   -24.1230 ca         1 HR9      -0.110000
     18 N1          -8.6240    12.1650   -24.3180 nb         1 HR9      -0.634000
     19 N2          -5.1960    11.0130   -23.4250 nu         1 HR9      -1.008200
     20 O1         -10.8510    13.6870   -21.8980 o          1 HR9      -0.739500
     21 O2         -11.2140    13.2950   -23.9710 o          1 HR9      -0.739500
     22 O3          -4.8410    11.8790   -20.8850 o          1 HR9      -0.745000
     23 O4          -6.6130    12.1240   -19.7040 o          1 HR9      -0.745000
     24 H08         -2.0400    11.1900   -26.1200 hc         1 HR9       0.034200
     25 H09         -2.6950     9.5780   -26.3860 hc         1 HR9       0.034200
     26 H12         -0.0610     9.0910   -22.7930 ha         1 HR9       0.110000
     27 H14          2.3590    12.6040   -22.1520 ha         1 HR9       0.101000
     28 H16          0.4860    11.9570   -25.9850 ha         1 HR9       0.110000
     29 H01         -7.0900    11.2760   -25.3730 h4         1 HR9      -0.037900
     30 H02         -8.5920    12.9880   -21.0260 ha         1 HR9       0.148000
     31 H05         -4.3140    11.9150   -25.1090 h1         1 HR9       0.006700
     32 H04         -4.9440    10.2730   -25.3820 h1         1 HR9       0.006700
     33 H07         -3.1300     9.3460   -23.9170 hc         1 HR9       0.050700
     34 H06         -2.5060    10.9780   -23.6590 hc         1 HR9       0.050700
     35 H10         -0.8930     8.5720   -24.9990 hc         1 HR9       0.035200
     36 H11         -0.2650     9.4500   -26.3770 hc         1 HR9       0.035200
     37 H13          1.3690    10.4770   -21.3080 ha         1 HR9       0.103500
     38 H15          1.9150    13.3400   -24.4920 ha         1 HR9       0.103500
     39 H03         -4.6500    11.1440   -22.5590 hn         1 HR9       0.542000
@<TRIPOS>BOND
     1     1    13 1   
     2     1    14 1   
     3     1    24 1   
     4     1    25 1   
     5     2    15 ar  
     6     2    16 ar  
     7     2    26 1   
     8     3    16 ar  
     9     3    17 ar  
    10     3    27 1   
    11     4    15 ar  
    12     4    17 ar  
    13     4    28 1   
    14     5     9 1   
    15     5    20 1   
    16     5    21 1   
    17     6    11 1   
    18     6    22 1   
    19     6    23 1   
    20     7     8 ar  
    21     7    11 ar  
    22     7    19 1   
    23     8    18 ar  
    24     8    29 1   
    25     9    10 ar  
    26     9    18 ar  
    27    10    11 ar  
    28    10    30 1   
    29    12    13 1   
    30    12    19 1   
    31    12    31 1   
    32    12    32 1   
    33    13    33 1   
    34    13    34 1   
    35    14    15 1   
    36    14    35 1   
    37    14    36 1   
    38    16    37 1   
    39    17    38 1   
    40    19    39 1   
@<TRIPOS>SUBSTRUCTURE
     1 HR9         1 TEMP              0 ****  ****    0 ROOT
