@<TRIPOS>MOLECULE
HRA
   57    61     1     0     0
SMALL
abcg2


@<TRIPOS>ATOM
      1 C1          23.9790     6.2180     1.4450 c6         1 HRA      -0.086400
      2 C2          25.1350     6.7180     0.5790 c6         1 HRA      -0.102400
      3 C3          24.8660     8.1320     0.0710 c6         1 HRA       0.157300
      4 C4          22.5180     7.8210     0.2010 c6         1 HRA       0.137600
      5 C5          18.9110     7.0920     6.5260 ca         1 HRA      -0.045000
      6 C6          18.3780     7.1110     7.8050 ca         1 HRA      -0.170000
      7 C7          18.2430     5.9110     8.5000 ca         1 HRA       0.148100
      8 C9          19.1760     4.7230     6.6450 ca         1 HRA       0.168000
      9 C10         19.3060     5.9020     5.9160 ca         1 HRA      -0.177600
     10 C12         17.6950     5.0690     3.6340 cc         1 HRA      -0.095100
     11 C13         19.0100     5.4820     3.4540 cd         1 HRA      -0.216400
     12 C14         20.3530     5.5870     1.1400 ca         1 HRA       0.434900
     13 C16         18.1040     4.8710     1.4460 ca         1 HRA       0.142500
     14 C           25.9420     8.6090    -0.8750 c3         1 HRA       0.167600
     15 O           25.7560    10.0000    -1.1420 oh         1 HRA      -0.715000
     16 O1          23.6140     8.1860    -0.6250 os         1 HRA      -0.441000
     17 C18         22.6550     6.3800     0.7040 c6         1 HRA       0.203500
     18 N3          21.5440     6.0330     1.5690 nu         1 HRA      -0.918100
     19 C15         19.2750     5.3570     2.0340 ca         1 HRA      -0.214800
     20 N1          20.1710     5.3350    -0.1720 nb         1 HRA      -0.293000
     21 C17         18.9900     4.8680    -0.5850 ca         1 HRA       0.180900
     22 N2          17.9110     4.6100     0.1460 nb         1 HRA      -0.235000
     23 N           17.1650     4.7080     2.4410 na         1 HRA      -0.310400
     24 O3          20.9880     6.4180     4.3430 o          1 HRA      -0.553100
     25 C8          18.6520     4.7110     7.9280 ca         1 HRA      -0.134000
     26 O2          17.7650     5.8390     9.7820 os         1 HRA      -0.254200
     27 C19         16.8710     6.8010    10.2310 ca         1 HRA       0.098100
     28 C24         17.1630     7.4490    11.4220 ca         1 HRA      -0.126000
     29 C23         16.2520     8.3680    11.9350 ca         1 HRA      -0.093000
     30 C22         15.0680     8.6360    11.2570 ca         1 HRA      -0.116000
     31 C21         14.7890     7.9740    10.0640 ca         1 HRA      -0.093000
     32 C20         15.6870     7.0490     9.5460 ca         1 HRA      -0.126000
     33 H1          24.1270     5.1730     1.7220 hc         1 HRA       0.053200
     34 H2          23.9400     6.7990     2.3730 hc         1 HRA       0.053200
     35 H3          25.2690     6.0550    -0.2820 hc         1 HRA       0.052200
     36 H4          26.0660     6.7090     1.1500 hc         1 HRA       0.052200
     37 H5          24.8150     8.8220     0.9270 h1         1 HRA       0.050700
     38 H6          22.4480     8.4980     1.0630 h1         1 HRA       0.055200
     39 H7          21.6170     7.9310    -0.4030 h1         1 HRA       0.055200
     40 H8          19.0170     8.0210     5.9800 ha         1 HRA       0.129000
     41 H9          18.0700     8.0430     8.2550 ha         1 HRA       0.136000
     42 H10         17.1120     5.0190     4.5370 h4         1 HRA       0.226000
     43 H11         25.8890     8.0260    -1.8010 h1         1 HRA       0.029700
     44 H12         26.9170     8.4330    -0.4100 h1         1 HRA       0.029700
     45 H13         26.4320    10.2780    -1.7710 ho         1 HRA       0.501000
     46 H14         22.6360     5.7150    -0.1600 h1         1 HRA       0.091700
     47 H15         21.5950     6.2740     2.5560 hn         1 HRA       0.531000
     48 H16         18.9040     4.6810    -1.6510 h5         1 HRA       0.048100
     49 H17         16.2230     4.3770     2.2960 hn         1 HRA       0.368000
     50 H18         18.5570     3.7880     8.4830 ha         1 HRA       0.149000
     51 H19         18.0930     7.2330    11.9330 ha         1 HRA       0.128000
     52 H20         16.4760     8.8780    12.8640 ha         1 HRA       0.119000
     53 H21         14.3630     9.3540    11.6570 ha         1 HRA       0.119000
     54 H22         13.8650     8.1730     9.5350 ha         1 HRA       0.119000
     55 H23         15.4760     6.5260     8.6230 ha         1 HRA       0.128000
     56 C11         19.8610     5.9490     4.5200 c          1 HRA       0.641900
     57 CL          19.7040     3.2020     5.9580 cl         1 HRA      -0.189000
@<TRIPOS>BOND
     1     1     2 1   
     2     1    17 1   
     3     1    33 1   
     4     1    34 1   
     5     2     3 1   
     6     2    35 1   
     7     2    36 1   
     8     3    14 1   
     9     3    16 1   
    10     3    37 1   
    11     4    16 1   
    12     4    17 1   
    13     4    38 1   
    14     4    39 1   
    15     5     6 ar  
    16     5     9 ar  
    17     5    40 1   
    18     6     7 ar  
    19     6    41 1   
    20     7    25 ar  
    21     7    26 1   
    22     8     9 ar  
    23     8    25 ar  
    24     8    57 1   
    25     9    56 1   
    26    10    11 2   
    27    10    23 1   
    28    10    42 1   
    29    11    19 1   
    30    11    56 1   
    31    12    18 1   
    32    12    19 ar  
    33    12    20 ar  
    34    13    19 ar  
    35    13    22 ar  
    36    13    23 1   
    37    14    15 1   
    38    14    43 1   
    39    14    44 1   
    40    15    45 1   
    41    17    18 1   
    42    17    46 1   
    43    18    47 1   
    44    20    21 ar  
    45    21    22 ar  
    46    21    48 1   
    47    23    49 1   
    48    24    56 2   
    49    25    50 1   
    50    26    27 1   
    51    27    28 ar  
    52    27    32 ar  
    53    28    29 ar  
    54    28    51 1   
    55    29    30 ar  
    56    29    52 1   
    57    30    31 ar  
    58    30    53 1   
    59    31    32 ar  
    60    31    54 1   
    61    32    55 1   
@<TRIPOS>SUBSTRUCTURE
     1 HRA         1 TEMP              0 ****  ****    0 ROOT
