@<TRIPOS>MOLECULE
HRA
   57    61     1     0     0
SMALL
No Charge or Current Charge


@<TRIPOS>ATOM
      1 C1          23.9450     6.1980     1.5590 c6         1 HRA      -0.086400
      2 C2          25.1220     6.8490     0.7870 c6         1 HRA      -0.102400
      3 C3          24.7190     8.2500     0.2510 c6         1 HRA       0.157300
      4 C4          22.3740     7.6200     0.1550 c6         1 HRA       0.137600
      5 C5          19.1680     7.0660     6.4480 ca         1 HRA      -0.045000
      6 C6          18.6830     7.1210     7.7650 ca         1 HRA      -0.170000
      7 C7          18.4110     5.9320     8.4670 ca         1 HRA       0.148100
      8 C9          19.1350     4.6330     6.5420 ca         1 HRA       0.168000
      9 C10         19.3850     5.8200     5.8270 ca         1 HRA      -0.177600
     10 C12         17.5940     5.1110     3.6370 cc         1 HRA      -0.095100
     11 C13         18.9290     5.3720     3.3520 cd         1 HRA      -0.216400
     12 C14         20.2770     5.3330     1.0600 ca         1 HRA       0.434900
     13 C16         17.9460     4.8520     1.3700 ca         1 HRA       0.142500
     14 C           25.8540     8.9070    -0.6030 c3         1 HRA       0.167600
     15 O           25.4990    10.2020    -1.1280 oh         1 HRA      -0.715000
     16 O1          23.5240     8.1310    -0.5620 os         1 HRA      -0.441000
     17 C18         22.6570     6.1840     0.6970 c6         1 HRA       0.203500
     18 N3          21.5370     5.6820     1.5200 nu         1 HRA      -0.918100
     19 C15         19.1600     5.2100     1.9120 ca         1 HRA      -0.214800
     20 N1          20.1450     5.1050    -0.2620 nb         1 HRA      -0.293000
     21 C17         18.9120     4.7610    -0.6990 ca         1 HRA       0.180900
     22 N2          17.7970     4.6210     0.0540 nb         1 HRA      -0.235000
     23 N           17.0180     4.7920     2.3920 na         1 HRA      -0.310400
     24 O3          21.0680     6.0650     4.1980 o          1 HRA      -0.553100
     25 C8          18.6510     4.6910     7.8580 ca         1 HRA      -0.134000
     26 O2          17.9490     5.9600     9.7630 os         1 HRA      -0.254200
     27 C19         17.0300     6.8830    10.2100 ca         1 HRA       0.098100
     28 C24         17.1560     7.3900    11.5140 ca         1 HRA      -0.126000
     29 C23         16.2240     8.3240    12.0010 ca         1 HRA      -0.093000
     30 C22         15.1600     8.7450    11.1840 ca         1 HRA      -0.116000
     31 C21         15.0240     8.2290     9.8830 ca         1 HRA      -0.093000
     32 C20         15.9550     7.2950     9.3960 ca         1 HRA      -0.126000
     33 H1          24.2130     5.1740     1.8550 hc         1 HRA       0.053200
     34 H2          23.7690     6.7590     2.4880 hc         1 HRA       0.053200
     35 H3          25.4200     6.2030    -0.0510 hc         1 HRA       0.052200
     36 H4          25.9980     6.9360     1.4450 hc         1 HRA       0.052200
     37 H5          24.5030     8.9150     1.1010 h1         1 HRA       0.050700
     38 H6          22.1340     8.3000     0.9850 h1         1 HRA       0.055200
     39 H7          21.5130     7.6000    -0.5270 h1         1 HRA       0.055200
     40 H8          19.3740     7.9900     5.9080 ha         1 HRA       0.129000
     41 H9          18.5240     8.0860     8.2400 ha         1 HRA       0.136000
     42 H10         17.0320     5.1290     4.5680 h4         1 HRA       0.226000
     43 H11         26.1020     8.2230    -1.4260 h1         1 HRA       0.029700
     44 H12         26.7480     8.9930     0.0290 h1         1 HRA       0.029700
     45 H13         26.2450    10.4920    -1.7040 ho         1 HRA       0.501000
     46 H14         22.8300     5.5190    -0.1640 h1         1 HRA       0.091700
     47 H15         21.5680     5.8540     2.5310 hn         1 HRA       0.531000
     48 H16         18.8060     4.5770    -1.7670 h5         1 HRA       0.048100
     49 H17         16.0430     4.5490     2.2500 hn         1 HRA       0.368000
     50 H18         18.4600     3.7740     8.4070 ha         1 HRA       0.149000
     51 H19         17.9780     7.0620    12.1450 ha         1 HRA       0.128000
     52 H20         16.3260     8.7200    13.0090 ha         1 HRA       0.119000
     53 H21         14.4380     9.4670    11.5600 ha         1 HRA       0.119000
     54 H22         14.1950     8.5500     9.2540 ha         1 HRA       0.119000
     55 H23         15.8380     6.8910     8.3930 ha         1 HRA       0.128000
     56 C11         19.9010     5.7710     4.4230 c          1 HRA       0.641900
     57 Cl          19.4380     3.0560     5.8160 cl         1 HRA      -0.189000
@<TRIPOS>BOND
     1     1     2 1   
     2     1    17 1   
     3     1    33 1   
     4     1    34 1   
     5     2     3 1   
     6     2    35 1   
     7     2    36 1   
     8     3    14 1   
     9     3    16 1   
    10     3    37 1   
    11     4    16 1   
    12     4    17 1   
    13     4    38 1   
    14     4    39 1   
    15     5     6 ar  
    16     5     9 ar  
    17     5    40 1   
    18     6     7 ar  
    19     6    41 1   
    20     7    25 ar  
    21     7    26 1   
    22     8     9 ar  
    23     8    25 ar  
    24     8    57 1   
    25     9    56 1   
    26    10    11 2   
    27    10    23 1   
    28    10    42 1   
    29    11    19 1   
    30    11    56 1   
    31    12    18 1   
    32    12    19 ar  
    33    12    20 ar  
    34    13    19 ar  
    35    13    22 ar  
    36    13    23 1   
    37    14    15 1   
    38    14    43 1   
    39    14    44 1   
    40    15    45 1   
    41    17    18 1   
    42    17    46 1   
    43    18    47 1   
    44    20    21 ar  
    45    21    22 ar  
    46    21    48 1   
    47    23    49 1   
    48    24    56 2   
    49    25    50 1   
    50    26    27 1   
    51    27    28 ar  
    52    27    32 ar  
    53    28    29 ar  
    54    28    51 1   
    55    29    30 ar  
    56    29    52 1   
    57    30    31 ar  
    58    30    53 1   
    59    31    32 ar  
    60    31    54 1   
    61    32    55 1   
@<TRIPOS>SUBSTRUCTURE
     1 HRA         1 TEMP              0 ****  ****    0 ROOT
