@<TRIPOS>MOLECULE
HRB
   51    52     1     0     0
SMALL
bcc


@<TRIPOS>ATOM
      1 CP5          3.2100     5.5750    -0.2650 c3         1 HRB      -0.088100
      2 CP4          3.6530     4.1920    -0.7220 c3         1 HRB      -0.071400
      3 CP3          2.8960     3.0700    -0.0250 c3         1 HRB      -0.082400
      4 CP2          3.3110     1.6790    -0.4890 c3         1 HRB      -0.062400
      5 CP1          2.5130     0.5810     0.2010 c3         1 HRB      -0.087400
      6 C5           2.6720    -0.7880    -0.4240 c5         1 HRB       0.135100
      7 O1           4.0020    -1.2820    -0.3370 os         1 HRB      -0.446600
      8 C2           4.0270    -2.6080     0.1470 c5         1 HRB       0.333900
      9 O2           4.3350    -2.6510     1.5060 oh         1 HRB      -0.612800
     10 C3           2.6140    -3.1310    -0.0450 c5         1 HRB      -0.115400
     11 C4           1.8060    -1.8710     0.2340 c5         1 HRB       0.030000
     12 NE2          0.4410    -1.8620    -0.2330 na         1 HRB      -0.193900
     13 CD2         -0.6620    -1.6090     0.5370 cc         1 HRB      -0.272600
     14 CE1          0.0030    -1.9940    -1.5040 cc         1 HRB       0.377400
     15 ND1         -1.2940    -1.8470    -1.5890 nd         1 HRB      -0.659000
     16 CG          -1.7280    -1.5990    -0.3160 cd         1 HRB       0.350600
     17 CB          -3.1490    -1.2800    -0.0090 c3         1 HRB      -0.102700
     18 CA          -3.4580     0.2290    -0.1050 c3         1 HRB      -0.040300
     19 C           -4.9620     0.4570     0.1860 c          1 HRB       0.925600
     20 OXT         -5.7440     0.0120    -0.6730 o          1 HRB      -0.828800
     21 O           -5.2580     1.0270     1.2530 o          1 HRB      -0.828800
     22 N           -2.6440     0.9870     0.8110 ns         1 HRB      -0.526900
     23 CA1         -1.5180     1.6430     0.4980 c          1 HRB       0.655100
     24 CA2         -0.9010     2.4210     1.6380 c3         1 HRB      -0.182100
     25 OA1         -1.0160     1.6480    -0.6210 o          1 HRB      -0.653100
     26 HP51         3.7610     6.3640    -0.7780 hc         1 HRB       0.028700
     27 HP52         2.1480     5.7320    -0.4610 hc         1 HRB       0.028700
     28 HP53         3.3680     5.7060     0.8070 hc         1 HRB       0.028700
     29 HP41         3.5150     4.1020    -1.8040 hc         1 HRB       0.031700
     30 HP42         4.7260     4.0720    -0.5420 hc         1 HRB       0.031700
     31 HP31         3.0380     3.1530     1.0590 hc         1 HRB       0.045700
     32 HP32         1.8200     3.1910    -0.1990 hc         1 HRB       0.045700
     33 HP21         3.1610     1.6070    -1.5730 hc         1 HRB       0.037200
     34 HP22         4.3820     1.5360    -0.3190 hc         1 HRB       0.037200
     35 HP11         2.7630     0.5320     1.2660 hc         1 HRB       0.062700
     36 HP12         1.4490     0.8330     0.1360 hc         1 HRB       0.062700
     37 H5           2.4010    -0.7140    -1.4870 h1         1 HRB       0.063700
     38 H2           4.7730    -3.1550    -0.4390 h2         1 HRB       0.053700
     39 HO2          5.2550    -2.3960     1.6290 ho         1 HRB       0.412000
     40 H31          2.4760    -3.4610    -1.0770 hc         1 HRB       0.071700
     41 H32          2.3730    -3.9630     0.6150 hc         1 HRB       0.071700
     42 H4           1.7610    -1.6980     1.3110 h1         1 HRB       0.084700
     43 HD2         -0.5890    -1.4530     1.6010 h4         1 HRB       0.166000
     44 HE1          0.6660    -2.2090    -2.3290 h5         1 HRB       0.037100
     45 HB1         -3.8040    -1.8090    -0.7030 hc         1 HRB       0.058200
     46 HB2         -3.4010    -1.6250     0.9980 hc         1 HRB       0.058200
     47 HA          -3.2380     0.5630    -1.1210 h1         1 HRB       0.076700
     48 HN          -3.0450     1.1220     1.7260 hn         1 HRB       0.324500
     49 HA21         0.1670     2.2120     1.6870 hc         1 HRB       0.042367
     50 HA22        -1.0110     3.4900     1.4490 hc         1 HRB       0.042367
     51 HA23        -1.3430     2.1990     2.6070 hc         1 HRB       0.042367
@<TRIPOS>BOND
     1     1     2 1   
     2     1    26 1   
     3     1    27 1   
     4     1    28 1   
     5     2     3 1   
     6     2    29 1   
     7     2    30 1   
     8     3     4 1   
     9     3    31 1   
    10     3    32 1   
    11     4     5 1   
    12     4    33 1   
    13     4    34 1   
    14     5     6 1   
    15     5    35 1   
    16     5    36 1   
    17     6     7 1   
    18     6    11 1   
    19     6    37 1   
    20     7     8 1   
    21     8     9 1   
    22     8    10 1   
    23     8    38 1   
    24     9    39 1   
    25    10    11 1   
    26    10    40 1   
    27    10    41 1   
    28    11    12 1   
    29    11    42 1   
    30    12    13 1   
    31    12    14 1   
    32    13    16 2   
    33    13    43 1   
    34    14    15 2   
    35    14    44 1   
    36    15    16 1   
    37    16    17 1   
    38    17    18 1   
    39    17    45 1   
    40    17    46 1   
    41    18    19 1   
    42    18    22 1   
    43    18    47 1   
    44    19    20 1   
    45    19    21 1   
    46    22    23 1   
    47    22    48 1   
    48    23    24 1   
    49    23    25 2   
    50    24    49 1   
    51    24    50 1   
    52    24    51 1   
@<TRIPOS>SUBSTRUCTURE
     1 HRB         1 TEMP              0 ****  ****    0 ROOT
