@<TRIPOS>MOLECULE
HRB
   51    52     1     0     0
SMALL
No Charge or Current Charge


@<TRIPOS>ATOM
      1 CP5          3.6490     5.6480    -0.1460 c3         1 HRB      -0.088100
      2 CP4          3.9190     4.2320    -0.6910 c3         1 HRB      -0.071400
      3 CP3          3.0560     3.1480    -0.0100 c3         1 HRB      -0.082400
      4 CP2          3.3230     1.7290    -0.5580 c3         1 HRB      -0.062400
      5 CP1          2.4710     0.6420     0.1370 c3         1 HRB      -0.087400
      6 C5           2.6720    -0.7840    -0.4270 c5         1 HRB       0.158300
      7 O1           4.0420    -1.2190    -0.2370 os         1 HRB      -0.493000
      8 C2           4.0590    -2.5950     0.1700 c5         1 HRB       0.380300
      9 O2           4.3320    -2.6230     1.5540 oh         1 HRB      -0.675000
     10 C3           2.6380    -3.1210    -0.1410 c5         1 HRB      -0.115400
     11 C4           1.7960    -1.8790     0.2430 c5         1 HRB       0.059300
     12 NE2          0.3920    -1.8990    -0.1800 na         1 HRB      -0.172500
     13 CD2         -0.6930    -1.5890     0.6080 cc         1 HRB      -0.240000
     14 CE1         -0.0880    -2.1800    -1.4460 cc         1 HRB       0.377400
     15 ND1         -1.4060    -2.0600    -1.4890 nd         1 HRB      -0.659000
     16 CG          -1.7820    -1.6740    -0.2200 cd         1 HRB       0.285300
     17 CB          -3.2190    -1.4090     0.1390 c3         1 HRB      -0.102700
     18 CA          -3.6460     0.0660    -0.0750 c3         1 HRB      -0.040300
     19 C           -5.1650     0.2680     0.2100 c          1 HRB       0.715000
     20 OXT         -5.9010     0.5160    -0.7350 o          1 HRB      -0.723500
     21 O           -5.5480     0.2540     1.3730 o          1 HRB      -0.723500
     22 N           -2.8350     0.9940     0.7550 ns         1 HRB      -0.459900
     23 CA1         -1.7320     1.6970     0.3240 c          1 HRB       0.588100
     24 CA2         -1.0350     2.5120     1.4090 c3         1 HRB      -0.182100
     25 OA1         -1.3410     1.6790    -0.8350 o          1 HRB      -0.653100
     26 HP51         4.2830     6.3810    -0.6580 hc         1 HRB       0.028700
     27 HP52         2.6010     5.9300    -0.3040 hc         1 HRB       0.028700
     28 HP53         3.8640     5.6980     0.9280 hc         1 HRB       0.028700
     29 HP41         3.7290     4.2230    -1.7710 hc         1 HRB       0.031700
     30 HP42         4.9810     3.9930    -0.5510 hc         1 HRB       0.031700
     31 HP31         3.2470     3.1600     1.0700 hc         1 HRB       0.045700
     32 HP32         1.9960     3.3940    -0.1510 hc         1 HRB       0.045700
     33 HP21         3.1150     1.7140    -1.6350 hc         1 HRB       0.037200
     34 HP22         4.3860     1.4900    -0.4340 hc         1 HRB       0.037200
     35 HP11         2.6920     0.6460     1.2110 hc         1 HRB       0.062700
     36 HP12         1.4130     0.9150     0.0410 hc         1 HRB       0.062700
     37 H5           2.4760    -0.7600    -1.5080 h1         1 HRB       0.063700
     38 H2           4.8300    -3.1520    -0.3810 h2         1 HRB       0.053700
     39 HO2          4.9990    -1.9160     1.6800 ho         1 HRB       0.451000
     40 H31          2.5430    -3.3860    -1.2000 hc         1 HRB       0.071700
     41 H32          2.3770    -4.0080     0.4480 hc         1 HRB       0.071700
     42 H4           1.8230    -1.7430     1.3330 h1         1 HRB       0.084700
     43 HD2         -0.6190    -1.3190     1.6530 h4         1 HRB       0.148000
     44 HE1          0.5600    -2.4540    -2.2690 h5         1 HRB       0.037100
     45 HB1         -3.8720    -2.0560    -0.4580 hc         1 HRB       0.058200
     46 HB2         -3.3900    -1.6850     1.1870 hc         1 HRB       0.058200
     47 HA          -3.4900     0.3170    -1.1320 h1         1 HRB       0.076700
     48 HN          -3.0950     1.1100     1.7280 hn         1 HRB       0.324500
     49 HA21        -0.1870     3.0920     1.0280 hc         1 HRB       0.042367
     50 HA22        -1.7720     3.1510     1.9100 hc         1 HRB       0.042367
     51 HA23        -0.7270     1.8370     2.2160 hc         1 HRB       0.042367
@<TRIPOS>BOND
     1     1     2 1   
     2     1    26 1   
     3     1    27 1   
     4     1    28 1   
     5     2     3 1   
     6     2    29 1   
     7     2    30 1   
     8     3     4 1   
     9     3    31 1   
    10     3    32 1   
    11     4     5 1   
    12     4    33 1   
    13     4    34 1   
    14     5     6 1   
    15     5    35 1   
    16     5    36 1   
    17     6     7 1   
    18     6    11 1   
    19     6    37 1   
    20     7     8 1   
    21     8     9 1   
    22     8    10 1   
    23     8    38 1   
    24     9    39 1   
    25    10    11 1   
    26    10    40 1   
    27    10    41 1   
    28    11    12 1   
    29    11    42 1   
    30    12    13 1   
    31    12    14 1   
    32    13    16 2   
    33    13    43 1   
    34    14    15 2   
    35    14    44 1   
    36    15    16 1   
    37    16    17 1   
    38    17    18 1   
    39    17    45 1   
    40    17    46 1   
    41    18    19 1   
    42    18    22 1   
    43    18    47 1   
    44    19    20 1   
    45    19    21 1   
    46    22    23 1   
    47    22    48 1   
    48    23    24 1   
    49    23    25 2   
    50    24    49 1   
    51    24    50 1   
    52    24    51 1   
@<TRIPOS>SUBSTRUCTURE
     1 HRB         1 TEMP              0 ****  ****    0 ROOT
