@<TRIPOS>MOLECULE
HRC
   34    35     1     0     0
SMALL
No Charge or Current Charge


@<TRIPOS>ATOM
      1 O1           0.9200     2.3530     1.0250 o          1 HRC      -0.535500
      2 S            1.3440     1.6720    -0.2000 sy         1 HRC       1.156600
      3 O2           2.1990     2.3150    -1.1990 o          1 HRC      -0.535500
      4 C9           1.9790     0.0380     0.1950 ca         1 HRC      -0.303500
      5 C14          1.4010    -0.6980     1.2490 ca         1 HRC      -0.014000
      6 C13          1.8780    -1.9850     1.5510 ca         1 HRC      -0.133500
      7 C12          2.9330    -2.5400     0.8080 ca         1 HRC      -0.059000
      8 C11          3.5130    -1.8060    -0.2410 ca         1 HRC      -0.133500
      9 C10          3.0400    -0.5190    -0.5510 ca         1 HRC      -0.014000
     10 N           -0.0840     1.3920    -1.0500 nu         1 HRC      -0.892100
     11 C1          -1.1330     0.5470    -0.6510 ca         1 HRC       0.196000
     12 C6          -2.1180     0.9790     0.2820 ca         1 HRC      -0.014300
     13 C7          -2.1500     2.3960     0.8540 c3         1 HRC      -0.054800
     14 C2          -1.2340    -0.7570    -1.2090 ca         1 HRC      -0.014300
     15 C8          -0.2460    -1.2710    -2.2570 c3         1 HRC      -0.054800
     16 C3          -2.2650    -1.6200    -0.7890 ca         1 HRC      -0.185500
     17 C4          -3.2050    -1.2010     0.1560 ca         1 HRC       0.157100
     18 O3          -4.1930    -2.0530     0.5460 oh         1 HRC      -0.531100
     19 C5          -3.1380     0.0940     0.6830 ca         1 HRC      -0.185500
     20 H1           0.5780    -0.2810     1.8280 ha         1 HRC       0.137000
     21 H2           1.4280    -2.5530     2.3620 ha         1 HRC       0.119500
     22 H3           3.3010    -3.5360     1.0440 ha         1 HRC       0.117000
     23 H4           4.3300    -2.2360    -0.8170 ha         1 HRC       0.119500
     24 H5           3.4980     0.0350    -1.3690 ha         1 HRC       0.137000
     25 H6           0.2790     1.1970    -1.9720 hn         1 HRC       0.493000
     26 H7          -1.6830     3.1250     0.1830 hc         1 HRC       0.051367
     27 H8          -3.1800     2.7320     1.0170 hc         1 HRC       0.051367
     28 H9          -1.6350     2.4400     1.8210 hc         1 HRC       0.051367
     29 H10          0.7170    -1.5230    -1.8020 hc         1 HRC       0.051367
     30 H11         -0.6170    -2.1780    -2.7480 hc         1 HRC       0.051367
     31 H12         -0.0710    -0.5330    -3.0480 hc         1 HRC       0.051367
     32 H13         -2.3390    -2.6240    -1.2000 ha         1 HRC       0.125000
     33 H14         -4.7580    -1.5940     1.2040 ho         1 HRC       0.468000
     34 H15         -3.8840     0.4240     1.4020 ha         1 HRC       0.125000
@<TRIPOS>BOND
     1     1     2 2   
     2     2     3 2   
     3     2     4 1   
     4     2    10 1   
     5     4     5 ar  
     6     4     9 ar  
     7     5     6 ar  
     8     5    20 1   
     9     6     7 ar  
    10     6    21 1   
    11     7     8 ar  
    12     7    22 1   
    13     8     9 ar  
    14     8    23 1   
    15     9    24 1   
    16    10    11 1   
    17    10    25 1   
    18    11    12 ar  
    19    11    14 ar  
    20    12    13 1   
    21    12    19 ar  
    22    13    26 1   
    23    13    27 1   
    24    13    28 1   
    25    14    15 1   
    26    14    16 ar  
    27    15    29 1   
    28    15    30 1   
    29    15    31 1   
    30    16    17 ar  
    31    16    32 1   
    32    17    18 1   
    33    17    19 ar  
    34    18    33 1   
    35    19    34 1   
@<TRIPOS>SUBSTRUCTURE
     1 HRC         1 TEMP              0 ****  ****    0 ROOT
