@<TRIPOS>MOLECULE
HRC
   34    35     1     0     0
SMALL
bcc


@<TRIPOS>ATOM
      1 O1           0.6930     1.8960     1.3890 o          1 HRC      -0.606300
      2 S            1.2210     1.5400     0.0840 sy         1 HRC       1.298200
      3 O2           2.1210     2.4420    -0.6150 o          1 HRC      -0.606300
      4 C9           2.0170    -0.0320     0.2510 ca         1 HRC      -0.303500
      5 C14          1.5810    -0.9100     1.2340 ca         1 HRC      -0.032000
      6 C13          2.1560    -2.1710     1.3100 ca         1 HRC      -0.151500
      7 C12          3.1540    -2.5380     0.4160 ca         1 HRC      -0.077000
      8 C11          3.5880    -1.6430    -0.5540 ca         1 HRC      -0.151500
      9 C10          3.0200    -0.3830    -0.6440 ca         1 HRC      -0.032000
     10 N           -0.0660     1.3290    -0.9340 nu         1 HRC      -0.698500
     11 C1          -1.1650     0.5080    -0.5560 ca         1 HRC       0.057600
     12 C6          -2.2180     1.0870     0.1620 ca         1 HRC      -0.014300
     13 C7          -2.2470     2.5450     0.5170 c3         1 HRC      -0.054800
     14 C2          -1.2220    -0.8380    -0.9460 ca         1 HRC      -0.014300
     15 C8          -0.1600    -1.4960    -1.7810 c3         1 HRC      -0.054800
     16 C3          -2.3160    -1.6040    -0.5660 ca         1 HRC      -0.203500
     17 C4          -3.3400    -1.0540     0.1940 ca         1 HRC       0.157100
     18 O3          -4.3640    -1.8550     0.5410 oh         1 HRC      -0.492100
     19 C5          -3.2910     0.2900     0.5430 ca         1 HRC      -0.203500
     20 H1           0.8070    -0.6290     1.9350 ha         1 HRC       0.155000
     21 H2           1.8230    -2.8650     2.0690 ha         1 HRC       0.137500
     22 H3           3.5970    -3.5230     0.4790 ha         1 HRC       0.135000
     23 H4           4.3730    -1.9260    -1.2430 ha         1 HRC       0.137500
     24 H5           3.3600     0.3100    -1.4020 ha         1 HRC       0.155000
     25 H6           0.2150     1.3050    -1.9070 hn         1 HRC       0.437800
     26 H7          -1.6570     3.1440    -0.1730 hc         1 HRC       0.051367
     27 H8          -3.2720     2.9140     0.5050 hc         1 HRC       0.051367
     28 H9          -1.8510     2.7180     1.5170 hc         1 HRC       0.051367
     29 H10          0.5180    -2.0820    -1.1590 hc         1 HRC       0.051367
     30 H11         -0.6150    -2.1820    -2.4950 hc         1 HRC       0.051367
     31 H12          0.4470    -0.7930    -2.3450 hc         1 HRC       0.051367
     32 H13         -2.3750    -2.6430    -0.8690 ha         1 HRC       0.143000
     33 H14         -5.0170    -1.3650     1.0530 ho         1 HRC       0.429000
     34 H15         -4.1100     0.7350     1.0980 ha         1 HRC       0.143000
@<TRIPOS>BOND
     1     1     2 2   
     2     2     3 2   
     3     2     4 1   
     4     2    10 1   
     5     4     5 ar  
     6     4     9 ar  
     7     5     6 ar  
     8     5    20 1   
     9     6     7 ar  
    10     6    21 1   
    11     7     8 ar  
    12     7    22 1   
    13     8     9 ar  
    14     8    23 1   
    15     9    24 1   
    16    10    11 1   
    17    10    25 1   
    18    11    12 ar  
    19    11    14 ar  
    20    12    13 1   
    21    12    19 ar  
    22    13    26 1   
    23    13    27 1   
    24    13    28 1   
    25    14    15 1   
    26    14    16 ar  
    27    15    29 1   
    28    15    30 1   
    29    15    31 1   
    30    16    17 ar  
    31    16    32 1   
    32    17    18 1   
    33    17    19 ar  
    34    18    33 1   
    35    19    34 1   
@<TRIPOS>SUBSTRUCTURE
     1 HRC         1 TEMP              0 ****  ****    0 ROOT
