@<TRIPOS>MOLECULE
HRD
   30    32     1     0     0
SMALL
abcg2


@<TRIPOS>ATOM
      1 N1           2.6440    -1.5060     0.0140 nc         1 HRD      -0.670100
      2 N3           2.9850     0.7070     0.0220 na         1 HRD      -0.358600
      3 C4           3.5400    -0.5350     0.0130 cd         1 HRD       0.688700
      4 C5           5.8280     0.3480     0.0010 c3         1 HRD       0.220100
      5 C6           1.6150     0.5360     0.0240 ca         1 HRD      -0.125200
      6 C7           0.5670     1.4130     0.0260 ca         1 HRD      -0.023000
      7 C8          -0.7260     0.8660     0.0240 ca         1 HRD      -0.236600
      8 C10         -3.2140    -0.2790     0.0140 cc         1 HRD       0.725800
      9 C1          -0.9410    -0.5340     0.0220 ca         1 HRD       0.223400
     10 C2           0.1570    -1.4030     0.0210 ca         1 HRD      -0.104000
     11 C3           1.4350    -0.8720     0.0210 ca         1 HRD       0.166400
     12 N2           4.8620    -0.7220     0.0030 nu         1 HRD      -0.916400
     13 C9          -1.8770     1.7460     0.0180 c          1 HRD       0.594600
     14 O1          -1.8400     2.9690     0.0180 o          1 HRD      -0.557000
     15 N4          -3.0860     1.0870     0.0080 ns         1 HRD      -0.456400
     16 N5          -4.4670    -0.7560     0.0050 nu         1 HRD      -0.921400
     17 C11         -4.7500    -2.1700     0.0230 c3         1 HRD       0.236100
     18 N6          -2.1990    -1.0820     0.0230 nd         1 HRD      -0.708100
     19 H5           5.7500     0.9710     0.8950 h1         1 HRD       0.039367
     20 H5A          6.8210    -0.0890    -0.0160 h1         1 HRD       0.039367
     21 H7           0.7100     2.4860     0.0270 ha         1 HRD       0.133000
     22 H2          -0.0070    -2.4730     0.0200 ha         1 HRD       0.143000
     23 H11         -4.3170    -2.6780    -0.8400 h1         1 HRD       0.044033
     24 H11A        -4.3720    -2.6510     0.9260 h1         1 HRD       0.044033
     25 H9           5.7290     0.9880    -0.8780 h1         1 HRD       0.039367
     26 H10          5.1810    -1.6750    -0.0050 hn         1 HRD       0.524000
     27 H111        -5.2400    -0.1150     0.0340 hn         1 HRD       0.496000
     28 H12         -5.8280    -2.2970    -0.0100 h1         1 HRD       0.044033
     29 H13         -3.9150     1.6670    -0.0060 hn         1 HRD       0.319500
     30 H121         3.4750     1.5880     0.0090 hn         1 HRD       0.356000
@<TRIPOS>BOND
     1     1     3 2   
     2     1    11 1   
     3     2     3 1   
     4     2     5 1   
     5     2    30 1   
     6     3    12 1   
     7     4    12 1   
     8     4    19 1   
     9     4    20 1   
    10     4    25 1   
    11     5     6 ar  
    12     5    11 ar  
    13     6     7 ar  
    14     6    21 1   
    15     7     9 ar  
    16     7    13 1   
    17     8    15 1   
    18     8    16 1   
    19     8    18 2   
    20     9    10 ar  
    21     9    18 1   
    22    10    11 ar  
    23    10    22 1   
    24    12    26 1   
    25    13    14 2   
    26    13    15 1   
    27    15    29 1   
    28    16    17 1   
    29    16    27 1   
    30    17    23 1   
    31    17    24 1   
    32    17    28 1   
@<TRIPOS>SUBSTRUCTURE
     1 HRD         1 TEMP              0 ****  ****    0 ROOT
