@<TRIPOS>MOLECULE
HRD
   30    32     1     0     0
SMALL
No Charge or Current Charge


@<TRIPOS>ATOM
      1 N1           2.6900    -1.4760     0.0450 nc         1 HRD      -0.670100
      2 N3           2.9770     0.8130     0.0460 na         1 HRD      -0.358600
      3 C4           3.5400    -0.4530     0.0490 cd         1 HRD       0.688700
      4 C5           5.9440     0.2980    -0.0310 c3         1 HRD       0.220100
      5 C6           1.6350     0.5420     0.0390 ca         1 HRD      -0.125200
      6 C7           0.5550     1.4300     0.0330 ca         1 HRD      -0.023000
      7 C8          -0.7470     0.8770     0.0270 ca         1 HRD      -0.236600
      8 C10         -3.2110    -0.2760     0.0140 cc         1 HRD       0.725800
      9 C1          -0.9370    -0.5260     0.0260 ca         1 HRD       0.223400
     10 C2           0.1900    -1.3750     0.0310 ca         1 HRD      -0.104000
     11 C3           1.4720    -0.8140     0.0380 ca         1 HRD       0.166400
     12 N2           4.8610    -0.6920     0.0560 nu         1 HRD      -0.916400
     13 C9          -1.9450     1.7460     0.0200 c          1 HRD       0.594600
     14 O1          -1.9050     2.9660     0.0210 o          1 HRD      -0.557000
     15 N4          -3.1100     1.0710     0.0140 ns         1 HRD      -0.456400
     16 N5          -4.4670    -0.7820     0.0070 nu         1 HRD      -0.921400
     17 C11         -4.8430    -2.2090     0.0050 c3         1 HRD       0.236100
     18 N6          -2.2050    -1.1310     0.0190 nd         1 HRD      -0.708100
     19 H5           5.9130     0.9790     0.8300 h1         1 HRD       0.039367
     20 H5A          6.9210    -0.2040    -0.0410 h1         1 HRD       0.039367
     21 H7           0.7160     2.5070     0.0340 ha         1 HRD       0.133000
     22 H2           0.0670    -2.4530     0.0310 ha         1 HRD       0.143000
     23 H11         -4.4420    -2.7130    -0.8840 h1         1 HRD       0.044033
     24 H11A        -4.4510    -2.7130     0.8990 h1         1 HRD       0.044033
     25 H9           5.8500     0.8910    -0.9510 h1         1 HRD       0.039367
     26 H10          5.0850    -1.6850     0.0140 hn         1 HRD       0.524000
     27 H111        -5.2140    -0.0920     0.0030 hn         1 HRD       0.496000
     28 H12         -5.9360    -2.3180    -0.0000 h1         1 HRD       0.044033
     29 H13         -3.9460     1.6300     0.0100 hn         1 HRD       0.319500
     30 H121         3.4630     1.6970     0.0520 hn         1 HRD       0.356000
@<TRIPOS>BOND
     1     1     3 2   
     2     1    11 1   
     3     2     3 1   
     4     2     5 1   
     5     2    30 1   
     6     3    12 1   
     7     4    12 1   
     8     4    19 1   
     9     4    20 1   
    10     4    25 1   
    11     5     6 ar  
    12     5    11 ar  
    13     6     7 ar  
    14     6    21 1   
    15     7     9 ar  
    16     7    13 1   
    17     8    15 1   
    18     8    16 1   
    19     8    18 2   
    20     9    10 ar  
    21     9    18 1   
    22    10    11 ar  
    23    10    22 1   
    24    12    26 1   
    25    13    14 2   
    26    13    15 1   
    27    15    29 1   
    28    16    17 1   
    29    16    27 1   
    30    17    23 1   
    31    17    24 1   
    32    17    28 1   
@<TRIPOS>SUBSTRUCTURE
     1 HRD         1 TEMP              0 ****  ****    0 ROOT
