@<TRIPOS>MOLECULE
HRE
   64    68     1     0     0
SMALL
bcc


@<TRIPOS>ATOM
      1 C1          -4.3850    -0.5170     1.7390 ca         1 HRE       0.526200
      2 C3          -6.1570    -0.6910     0.3470 ca         1 HRE       0.953900
      3 C11         -2.7460     2.4570    -0.1650 c3         1 HRE      -0.086600
      4 C12         -2.2950     2.4590     2.3240 c3         1 HRE      -0.086600
      5 C14         -3.8650    -0.8010    -2.9390 c3         1 HRE       0.133700
      6 C16         -8.3610    -0.8110     1.3220 c3         1 HRE       0.225100
      7 C17         -0.0460     0.1310     0.9860 cc         1 HRE      -0.296600
      8 C18         -0.1840    -1.2470     0.9330 cc         1 HRE       0.243800
      9 C19          1.1360    -1.8890     0.9710 c          1 HRE       0.660000
     10 C21          1.3920     0.5080     1.0820 c5         1 HRE       0.258300
     11 C23          1.8730     1.3800    -0.0520 ca         1 HRE      -0.076300
     12 C24          1.8090     0.9240    -1.3670 ca         1 HRE      -0.114000
     13 C25          2.7450     2.9980    -2.1300 ca         1 HRE      -0.014000
     14 C26          2.8130     3.4620    -0.8190 ca         1 HRE      -0.095000
     15 C27          2.2420     1.7240    -2.4050 ca         1 HRE      -0.095000
     16 C28          2.3790     2.6450     0.2130 ca         1 HRE      -0.114000
     17 C29         -8.0280    -0.9580    -1.1590 c3         1 HRE       0.225100
     18 C30          3.1940     3.8280    -3.2000 cg         1 HRE       0.233800
     19 N2          -5.6980    -0.5900     1.6020 nb         1 HRE      -0.791000
     20 N4          -5.3900    -0.7380    -0.7550 nb         1 HRE      -0.866000
     21 C5          -4.0940    -0.6580    -0.5980 ca         1 HRE       0.745600
     22 C6          -3.5110    -0.5290     0.6740 ca         1 HRE      -0.349800
     23 N7          -2.1120    -0.4790     0.8350 na         1 HRE       0.205300
     24 N8          -1.4330    -1.6350     0.8370 nd         1 HRE      -0.414800
     25 C9          -1.3170     0.6350     0.9110 cd         1 HRE      -0.016600
     26 C10         -1.7690     2.0630     0.9430 c3         1 HRE       0.005600
     27 O13         -3.2880    -0.6910    -1.6390 os         1 HRE      -0.414100
     28 N15         -7.4850    -0.7540     0.1690 nh         1 HRE      -0.761300
     29 N20          2.0140    -0.8280     1.0410 n          1 HRE      -0.413000
     30 N31          3.5560     4.4980    -4.0660 n1         1 HRE      -0.362800
     31 C32          3.4040    -0.9860     1.0880 cc         1 HRE      -0.061600
     32 C33          4.0840    -0.5530     2.2910 c          1 HRE       0.692700
     33 C34          6.1410    -1.2920     1.2280 cc         1 HRE       0.022600
     34 C35          5.4840    -1.7070     0.1170 cd         1 HRE      -0.079600
     35 N36          5.4500    -0.7360     2.2440 ns         1 HRE      -0.423100
     36 C37          4.0850    -1.5350     0.0460 cd         1 HRE      -0.029000
     37 O38          3.5430    -0.0630     3.2740 o          1 HRE      -0.625500
     38 CL           6.3390    -2.4180    -1.2000 cl         1 HRE      -0.084400
     39 H1          -4.0000    -0.4490     2.7520 h4         1 HRE       0.036100
     40 H2          -2.7890     3.5440    -0.2310 hc         1 HRE       0.040367
     41 H3          -2.4340     2.0780    -1.1380 hc         1 HRE       0.040367
     42 H4          -3.7580     2.1070     0.0320 hc         1 HRE       0.040367
     43 H5          -3.2160     1.9310     2.5740 hc         1 HRE       0.040367
     44 H6          -1.5630     2.2490     3.1040 hc         1 HRE       0.040367
     45 H7          -2.5120     3.5270     2.3480 hc         1 HRE       0.040367
     46 H8          -4.4000    -1.7430    -3.0560 h1         1 HRE       0.051700
     47 H9          -4.5490     0.0220    -3.1430 h1         1 HRE       0.051700
     48 H10         -3.0310    -0.7650    -3.6330 h1         1 HRE       0.051700
     49 H11         -8.1940     0.0330     1.9900 h1         1 HRE       0.046700
     50 H12         -9.3910    -0.7730     0.9780 h1         1 HRE       0.046700
     51 H13         -8.2270    -1.7290     1.8970 h1         1 HRE       0.046700
     52 H14          1.6280     0.9870     2.0360 h1         1 HRE       0.094700
     53 H15          1.4170    -0.0600    -1.5890 ha         1 HRE       0.145000
     54 H16          3.2050     4.4470    -0.6070 ha         1 HRE       0.145000
     55 H17          2.1920     1.3690    -3.4250 ha         1 HRE       0.145000
     56 H18          2.4400     3.0010     1.2340 ha         1 HRE       0.145000
     57 H19         -7.8310    -1.9650    -1.5350 h1         1 HRE       0.046700
     58 H20         -9.1040    -0.8090    -1.1260 h1         1 HRE       0.046700
     59 H21         -7.6070    -0.2490    -1.8690 h1         1 HRE       0.046700
     60 H22         -0.8520     2.6360     0.7750 hc         1 HRE       0.062700
     61 H24          7.2090    -1.3800     1.3620 h4         1 HRE       0.166000
     62 H25          3.5540    -1.8420    -0.8460 ha         1 HRE       0.162000
     63 H23          5.9690    -0.4430     3.0620 hn         1 HRE       0.332500
     64 O22          1.4380    -3.0610     0.9450 o          1 HRE      -0.576500
@<TRIPOS>BOND
     1     1    19 ar  
     2     1    22 ar  
     3     1    39 1   
     4     2    19 ar  
     5     2    20 ar  
     6     2    28 1   
     7     3    26 1   
     8     3    40 1   
     9     3    41 1   
    10     3    42 1   
    11     4    26 1   
    12     4    43 1   
    13     4    44 1   
    14     4    45 1   
    15     5    27 1   
    16     5    46 1   
    17     5    47 1   
    18     5    48 1   
    19     6    28 1   
    20     6    49 1   
    21     6    50 1   
    22     6    51 1   
    23     7     8 1   
    24     7    10 1   
    25     7    25 2   
    26     8     9 1   
    27     8    24 2   
    28     9    29 1   
    29     9    64 2   
    30    10    11 1   
    31    10    29 1   
    32    10    52 1   
    33    11    12 ar  
    34    11    16 ar  
    35    12    15 ar  
    36    12    53 1   
    37    13    14 ar  
    38    13    15 ar  
    39    13    18 1   
    40    14    16 ar  
    41    14    54 1   
    42    15    55 1   
    43    16    56 1   
    44    17    28 1   
    45    17    57 1   
    46    17    58 1   
    47    17    59 1   
    48    18    30 3   
    49    20    21 ar  
    50    21    22 ar  
    51    21    27 1   
    52    22    23 1   
    53    23    24 1   
    54    23    25 1   
    55    25    26 1   
    56    26    60 1   
    57    29    31 1   
    58    31    32 1   
    59    31    36 2   
    60    32    35 1   
    61    32    37 2   
    62    33    34 2   
    63    33    35 1   
    64    33    61 1   
    65    34    36 1   
    66    34    38 1   
    67    35    63 1   
    68    36    62 1   
@<TRIPOS>SUBSTRUCTURE
     1 HRE         1 TEMP              0 ****  ****    0 ROOT
