@<TRIPOS>MOLECULE
HRE
   64    68     1     0     0
SMALL
No Charge or Current Charge


@<TRIPOS>ATOM
      1 C1          -4.2380    -0.8700     1.7540 ca         1 HRE       0.197900
      2 C3          -6.0480    -0.6430     0.3640 ca         1 HRE       0.427900
      3 C11         -2.0520     2.4030    -0.3230 c3         1 HRE      -0.086600
      4 C12         -2.8220     2.1270     2.1060 c3         1 HRE      -0.086600
      5 C14         -3.6860    -0.2950    -3.0370 c3         1 HRE       0.156900
      6 C16         -8.3710    -0.6920     1.3730 c3         1 HRE       0.225100
      7 C17         -0.0260    -0.1370     1.1350 cc         1 HRE      -0.231300
      8 C18         -0.0590    -1.5020     1.0010 cc         1 HRE       0.178500
      9 C19          1.3030    -2.0750     1.0660 c          1 HRE       0.517500
     10 C21          1.3900     0.3100     1.3230 c5         1 HRE       0.258300
     11 C23          1.6650     1.1850     0.0940 ca         1 HRE      -0.076300
     12 C24          1.5870     0.6710    -1.2200 ca         1 HRE      -0.096000
     13 C25          2.1400     2.8590    -2.1430 ca         1 HRE      -0.014000
     14 C26          2.2210     3.3780    -0.8380 ca         1 HRE      -0.077000
     15 C27          1.8230     1.5010    -2.3290 ca         1 HRE      -0.077000
     16 C28          1.9850     2.5460     0.2700 ca         1 HRE      -0.096000
     17 C29         -8.0770    -0.3920    -1.1320 c3         1 HRE       0.225100
     18 C30          2.3780     3.7090    -3.2780 cg         1 HRE       0.323000
     19 N2          -5.5740    -0.8170     1.6130 nb         1 HRE      -0.265000
     20 N4          -5.3040    -0.5310    -0.7520 nb         1 HRE      -0.340000
     21 C5          -3.9650    -0.5850    -0.6120 ca         1 HRE       0.417300
     22 C6          -3.3790    -0.7340     0.6550 ca         1 HRE      -0.219200
     23 N7          -2.0070    -0.8130     0.8200 na         1 HRE       0.256000
     24 N8          -1.2670    -1.9990     0.8190 nd         1 HRE      -0.414800
     25 C9          -1.2710     0.3850     1.0230 cd         1 HRE      -0.067300
     26 C10         -1.7120     1.8390     1.0720 c3         1 HRE       0.005600
     27 O13         -3.1440    -0.5010    -1.7180 os         1 HRE      -0.437300
     28 N15         -7.4560    -0.5800     0.2060 nh         1 HRE      -0.761300
     29 N20          2.1770    -0.9600     1.2160 n          1 HRE      -0.346000
     30 N31          2.5730     4.4070    -4.1930 n1         1 HRE      -0.452000
     31 C32          3.5960    -0.9880     1.2030 cc         1 HRE      -0.061600
     32 C33          4.3920     0.0570     1.9410 c          1 HRE       0.550200
     33 C34          6.4170    -1.0470     1.1060 cc         1 HRE      -0.027400
     34 C35          5.6990    -2.0030     0.4260 cd         1 HRE      -0.004000
     35 N36          5.7530    -0.0660     1.8230 ns         1 HRE      -0.356100
     36 C37          4.2600    -1.9730     0.4730 cd         1 HRE      -0.079000
     37 O38          3.9270     0.9570     2.6260 o          1 HRE      -0.550000
     38 Cl           6.4710    -3.2460    -0.5030 cl         1 HRE      -0.160000
     39 H1          -3.8540    -1.0130     2.7630 h4         1 HRE       0.036100
     40 H2          -2.1550     3.4940    -0.2810 hc         1 HRE       0.040367
     41 H3          -1.2570     2.1640    -1.0400 hc         1 HRE       0.040367
     42 H4          -2.9950     1.9920    -0.7000 hc         1 HRE       0.040367
     43 H5          -3.8000     1.7860     1.7500 hc         1 HRE       0.040367
     44 H6          -2.6010     1.6340     3.0600 hc         1 HRE       0.040367
     45 H7          -2.8980     3.2050     2.2910 hc         1 HRE       0.040367
     46 H8          -4.3590    -1.1160    -3.3170 h1         1 HRE       0.051700
     47 H9          -4.2450     0.6480    -3.0870 h1         1 HRE       0.051700
     48 H10         -2.8780    -0.2510    -3.7780 h1         1 HRE       0.051700
     49 H11         -8.1750     0.1120     2.0940 h1         1 HRE       0.046700
     50 H12         -9.4230    -0.6190     1.0680 h1         1 HRE       0.046700
     51 H13         -8.2350    -1.6590     1.8760 h1         1 HRE       0.046700
     52 H14          1.5150     0.8320     2.2810 h1         1 HRE       0.094700
     53 H15          1.3380    -0.3740    -1.3870 ha         1 HRE       0.127000
     54 H16          2.4660     4.4270    -0.6800 ha         1 HRE       0.127000
     55 H17          1.7560     1.0860    -3.3330 ha         1 HRE       0.127000
     56 H18          2.0500     2.9650     1.2720 ha         1 HRE       0.127000
     57 H19         -7.8020    -1.2170    -1.8030 h1         1 HRE       0.046700
     58 H20         -9.1730    -0.3650    -1.0680 h1         1 HRE       0.046700
     59 H21         -7.7450     0.5540    -1.5810 h1         1 HRE       0.046700
     60 H22         -0.8410     2.4100     1.4160 hc         1 HRE       0.062700
     61 H24          7.4990    -0.9710     1.1400 h4         1 HRE       0.216000
     62 H25          3.7160    -2.7160    -0.0980 ha         1 HRE       0.212000
     63 H23          6.2870     0.6350     2.3240 hn         1 HRE       0.332500
     64 O22          1.6230    -3.2580     1.0070 o          1 HRE      -0.501000
@<TRIPOS>BOND
     1     1    19 ar  
     2     1    22 ar  
     3     1    39 1   
     4     2    19 ar  
     5     2    20 ar  
     6     2    28 1   
     7     3    26 1   
     8     3    40 1   
     9     3    41 1   
    10     3    42 1   
    11     4    26 1   
    12     4    43 1   
    13     4    44 1   
    14     4    45 1   
    15     5    27 1   
    16     5    46 1   
    17     5    47 1   
    18     5    48 1   
    19     6    28 1   
    20     6    49 1   
    21     6    50 1   
    22     6    51 1   
    23     7     8 1   
    24     7    10 1   
    25     7    25 2   
    26     8     9 1   
    27     8    24 2   
    28     9    29 1   
    29     9    64 2   
    30    10    11 1   
    31    10    29 1   
    32    10    52 1   
    33    11    12 ar  
    34    11    16 ar  
    35    12    15 ar  
    36    12    53 1   
    37    13    14 ar  
    38    13    15 ar  
    39    13    18 1   
    40    14    16 ar  
    41    14    54 1   
    42    15    55 1   
    43    16    56 1   
    44    17    28 1   
    45    17    57 1   
    46    17    58 1   
    47    17    59 1   
    48    18    30 3   
    49    20    21 ar  
    50    21    22 ar  
    51    21    27 1   
    52    22    23 1   
    53    23    24 1   
    54    23    25 1   
    55    25    26 1   
    56    26    60 1   
    57    29    31 1   
    58    31    32 1   
    59    31    36 2   
    60    32    35 1   
    61    32    37 2   
    62    33    34 2   
    63    33    35 1   
    64    33    61 1   
    65    34    36 1   
    66    34    38 1   
    67    35    63 1   
    68    36    62 1   
@<TRIPOS>SUBSTRUCTURE
     1 HRE         1 TEMP              0 ****  ****    0 ROOT
