@<TRIPOS>MOLECULE
HRF
   30    31     1     0     0
SMALL
bcc


@<TRIPOS>ATOM
      1 C10         -0.4800    10.4330   -24.6480 ca         1 HRF      -0.150000
      2 C13        -10.8320    12.4290   -23.3370 c          1 HRF       0.830100
      3 C1          -6.6380    11.5020   -23.4850 ca         1 HRF       0.066300
      4 C2          -7.5670    11.1890   -24.4970 ca         1 HRF       0.253200
      5 C3          -9.3440    12.0970   -23.3730 ca         1 HRF       0.275800
      6 C4          -8.5080    12.4190   -22.3080 ca         1 HRF      -0.152300
      7 C5          -7.1530    12.1290   -22.3250 ca         1 HRF      -0.214600
      8 C6          -4.7810    10.3960   -24.6690 c3         1 HRF       0.284100
      9 C7          -3.2760    10.4050   -24.6430 ca         1 HRF      -0.062300
     10 C8          -2.5560     9.2190   -24.5540 ca         1 HRF      -0.111000
     11 C9          -1.1660     9.2300   -24.5590 ca         1 HRF      -0.144000
     12 C11         -1.1920    11.6240   -24.7320 ca         1 HRF      -0.144000
     13 C12         -2.5790    11.6100   -24.7300 ca         1 HRF      -0.111000
     14 C14         -6.3000    12.4670   -21.1070 c          1 HRF       0.935200
     15 N1          -8.8530    11.4780   -24.4460 nb         1 HRF      -0.636000
     16 N2          -5.3130    11.2300   -23.6240 nu         1 HRF      -0.804600
     17 O1         -11.2450    12.9720   -22.2910 o          1 HRF      -0.841800
     18 O2         -11.5030    12.1360   -24.3440 o          1 HRF      -0.841800
     19 O3          -5.1010    12.0960   -21.1290 o          1 HRF      -0.846300
     20 O4          -6.8580    13.0710   -20.1770 o          1 HRF      -0.846300
     21 H08          0.6020    10.4440   -24.6500 ha         1 HRF       0.106000
     22 H01         -7.2350    10.6730   -25.3920 h4         1 HRF      -0.037900
     23 H02         -8.9260    12.9020   -21.4370 ha         1 HRF       0.167000
     24 H04         -5.1120    10.7690   -25.6440 h1         1 HRF       0.018700
     25 H05         -5.1430     9.3610   -24.6010 h1         1 HRF       0.018700
     26 H06         -3.0860     8.2770   -24.4800 ha         1 HRF       0.139500
     27 H07         -0.6210     8.2970   -24.4900 ha         1 HRF       0.111500
     28 H09         -0.6640    12.5670   -24.8050 ha         1 HRF       0.111500
     29 H10         -3.1260    12.5420   -24.8010 ha         1 HRF       0.139500
     30 H03         -4.7990    11.3360   -22.7520 hn         1 HRF       0.486800
@<TRIPOS>BOND
     1     1    11 ar  
     2     1    12 ar  
     3     1    21 1   
     4     2     5 1   
     5     2    17 1   
     6     2    18 1   
     7     3     4 ar  
     8     3     7 ar  
     9     3    16 1   
    10     4    15 ar  
    11     4    22 1   
    12     5     6 ar  
    13     5    15 ar  
    14     6     7 ar  
    15     6    23 1   
    16     7    14 1   
    17     8     9 1   
    18     8    16 1   
    19     8    24 1   
    20     8    25 1   
    21     9    10 ar  
    22     9    13 ar  
    23    10    11 ar  
    24    10    26 1   
    25    11    27 1   
    26    12    13 ar  
    27    12    28 1   
    28    13    29 1   
    29    14    19 1   
    30    14    20 1   
    31    16    30 1   
@<TRIPOS>SUBSTRUCTURE
     1 HRF         1 TEMP              0 ****  ****    0 ROOT
