@<TRIPOS>MOLECULE
HRF
   30    31     1     0     0
SMALL
No Charge or Current Charge


@<TRIPOS>ATOM
      1 C10         -0.4260    10.3460   -24.4280 ca         1 HRF      -0.132000
      2 C13        -10.9660    12.2780   -23.0680 c          1 HRF       0.619500
      3 C1          -6.6900    11.6390   -23.6340 ca         1 HRF       0.270000
      4 C2          -7.6400    11.5560   -24.6910 ca         1 HRF       0.187900
      5 C3          -9.4430    12.0490   -23.2880 ca         1 HRF       0.210500
      6 C4          -8.5570    12.1530   -22.1860 ca         1 HRF      -0.069000
      7 C5          -7.1610    11.9500   -22.3370 ca         1 HRF      -0.214600
      8 C6          -4.7260    10.6690   -24.9590 c3         1 HRF       0.284100
      9 C7          -3.2180    10.5570   -24.7710 ca         1 HRF      -0.062300
     10 C8          -2.6690     9.4760   -24.0520 ca         1 HRF      -0.093000
     11 C9          -1.2770     9.3710   -23.8820 ca         1 HRF      -0.126000
     12 C11         -0.9670    11.4280   -25.1430 ca         1 HRF      -0.126000
     13 C12         -2.3580    11.5330   -25.3140 ca         1 HRF      -0.093000
     14 C14         -6.2500    12.0850   -21.1320 c          1 HRF       0.724600
     15 N1          -8.9700    11.7500   -24.5380 nb         1 HRF      -0.636000
     16 N2          -5.3230    11.4280   -23.8580 nu         1 HRF      -0.998200
     17 O1         -11.3700    12.5390   -21.9400 o          1 HRF      -0.736500
     18 O2         -11.7350    12.1930   -24.0200 o          1 HRF      -0.736500
     19 O3          -5.1330    11.5850   -21.1580 o          1 HRF      -0.741000
     20 O4          -6.6760    12.6850   -20.1570 o          1 HRF      -0.741000
     21 H08          0.6510    10.2650   -24.2960 ha         1 HRF       0.088000
     22 H01         -7.3250    11.3240   -25.7080 h4         1 HRF      -0.037900
     23 H02         -8.9630    12.3920   -21.2070 ha         1 HRF       0.149000
     24 H04         -4.9410    11.1620   -25.9160 h1         1 HRF       0.018700
     25 H05         -5.1620     9.6610   -24.9950 h1         1 HRF       0.018700
     26 H06         -3.3220     8.7180   -23.6260 ha         1 HRF       0.121500
     27 H07         -0.8590     8.5340   -23.3270 ha         1 HRF       0.093500
     28 H09         -0.3090    12.1840   -25.5650 ha         1 HRF       0.093500
     29 H10         -2.7710    12.3740   -25.8670 ha         1 HRF       0.121500
     30 H03         -4.7980    11.4160   -22.9690 hn         1 HRF       0.542000
@<TRIPOS>BOND
     1     1    11 ar  
     2     1    12 ar  
     3     1    21 1   
     4     2     5 1   
     5     2    17 1   
     6     2    18 1   
     7     3     4 ar  
     8     3     7 ar  
     9     3    16 1   
    10     4    15 ar  
    11     4    22 1   
    12     5     6 ar  
    13     5    15 ar  
    14     6     7 ar  
    15     6    23 1   
    16     7    14 1   
    17     8     9 1   
    18     8    16 1   
    19     8    24 1   
    20     8    25 1   
    21     9    10 ar  
    22     9    13 ar  
    23    10    11 ar  
    24    10    26 1   
    25    11    27 1   
    26    12    13 ar  
    27    12    28 1   
    28    13    29 1   
    29    14    19 1   
    30    14    20 1   
    31    16    30 1   
@<TRIPOS>SUBSTRUCTURE
     1 HRF         1 TEMP              0 ****  ****    0 ROOT
