@<TRIPOS>MOLECULE
HRG
   28    27     1     0     0
SMALL
abcg2


@<TRIPOS>ATOM
      1 N           -1.6970     6.0660    63.0350 n8         1 HRG      -1.004200
      2 CA          -2.6560     5.8110    64.1000 c3         1 HRG       0.022500
      3 CB          -2.2300     6.4790    65.4080 c3         1 HRG      -0.055400
      4 CG           0.3790     6.5940    65.4310 c3         1 HRG      -0.089400
      5 C1          -0.9070     5.9590    65.9860 c3         1 HRG      -0.075400
      6 CD           0.9650     7.7020    66.2960 c3         1 HRG       0.219800
      7 NE           0.0780     8.8400    66.4050 nu         1 HRG      -0.938400
      8 CZ           0.4830    10.0070    67.0000 c2         1 HRG       0.794100
      9 NH1          1.6690    10.3100    67.3830 n2         1 HRG      -0.935100
     10 NH2         -0.5460    10.9060    67.1890 nv         1 HRG      -1.021200
     11 C           -4.0850     6.2370    63.6670 c          1 HRG       0.719000
     12 O           -4.9490     6.2770    64.5650 o          1 HRG      -0.730000
     13 OXT         -4.2660     6.4610    62.4530 o          1 HRG      -0.730000
     14 HN1A        -2.1550     5.8820    62.1520 hn         1 HRG       0.381500
     15 HN2         -0.9210     5.4210    63.1020 hn         1 HRG       0.381500
     16 HA          -2.7370     4.7300    64.3190 h1         1 HRG      -0.007300
     17 HB1         -2.1840     7.5620    65.2500 hc         1 HRG       0.047200
     18 HB2         -3.0210     6.3060    66.1380 hc         1 HRG       0.047200
     19 HG1          1.1550     5.8300    65.3430 hc         1 HRG       0.054700
     20 HG2          0.2100     6.9750    64.4220 hc         1 HRG       0.054700
     21 HG'1        -0.9160     6.0870    67.0740 hc         1 HRG       0.019200
     22 HG'2        -0.8720     4.8760    65.8330 hc         1 HRG       0.019200
     23 HD1          1.2190     7.2940    67.2840 h1         1 HRG       0.021200
     24 HD2          1.9010     8.0340    65.8410 h1         1 HRG       0.021200
     25 HNE         -0.8990     8.6210    66.5220 hn         1 HRG       0.492000
     26 HN1          2.3030     9.5260    67.2970 hn         1 HRG       0.376400
     27 HN21        -0.2260    11.8350    67.4130 hn         1 HRG       0.457000
     28 HN22        -1.2600    10.9160    66.4760 hn         1 HRG       0.457000
@<TRIPOS>BOND
     1     1     2 1   
     2     1    14 1   
     3     1    15 1   
     4     2     3 1   
     5     2    11 1   
     6     2    16 1   
     7     3     5 1   
     8     3    17 1   
     9     3    18 1   
    10     4     5 1   
    11     4     6 1   
    12     4    19 1   
    13     4    20 1   
    14     5    21 1   
    15     5    22 1   
    16     6     7 1   
    17     6    23 1   
    18     6    24 1   
    19     7     8 1   
    20     7    25 1   
    21     8     9 2   
    22     8    10 1   
    23     9    26 1   
    24    10    27 1   
    25    10    28 1   
    26    11    12 1   
    27    11    13 1   
@<TRIPOS>SUBSTRUCTURE
     1 HRG         1 TEMP              0 ****  ****    0 ROOT
