@<TRIPOS>MOLECULE
HRG
   28    27     1     0     0
SMALL
No Charge or Current Charge


@<TRIPOS>ATOM
      1 N           -1.5870     7.5410    63.7560 n8         1 HRG      -1.004200
      2 CA          -2.4580     6.4760    64.3680 c3         1 HRG       0.022500
      3 CB          -2.0140     6.1330    65.8220 c3         1 HRG      -0.055400
      4 CG           0.6510     6.1990    65.6950 c3         1 HRG      -0.089400
      5 C1          -0.6510     5.4020    65.9920 c3         1 HRG      -0.075400
      6 CD           0.8340     7.4990    66.5100 c3         1 HRG       0.219800
      7 NE           0.0740     8.5940    65.9040 nu         1 HRG      -0.938400
      8 CZ          -0.1640     9.7500    66.4820 c2         1 HRG       0.794100
      9 NH1          0.6540    10.2890    67.2410 n2         1 HRG      -0.935100
     10 NH2         -0.9430    10.3950    65.6710 nv         1 HRG      -1.021200
     11 C           -4.0270     6.7440    64.2840 c          1 HRG       0.719000
     12 O           -4.5980     7.2830    65.2250 o          1 HRG      -0.730000
     13 OXT         -4.6110     6.4010    63.2640 o          1 HRG      -0.730000
     14 HN1A        -1.9530     7.7570    62.8200 hn         1 HRG       0.381500
     15 HN2         -0.6660     7.1340    63.5570 hn         1 HRG       0.381500
     16 HA          -2.2840     5.5760    63.7640 h1         1 HRG      -0.007300
     17 HB1         -2.0470     7.0320    66.4490 hc         1 HRG       0.047200
     18 HB2         -2.7750     5.4630    66.2420 hc         1 HRG       0.047200
     19 HG1          1.4930     5.5400    65.9400 hc         1 HRG       0.054700
     20 HG2          0.7470     6.4040    64.6230 hc         1 HRG       0.054700
     21 HG'1        -0.5920     5.0470    67.0280 hc         1 HRG       0.019200
     22 HG'2        -0.6570     4.5000    65.3680 hc         1 HRG       0.019200
     23 HD1          0.5090     7.3300    67.5460 h1         1 HRG       0.021200
     24 HD2          1.8990     7.7650    66.5260 h1         1 HRG       0.021200
     25 HNE         -0.7070     8.2850    65.3190 hn         1 HRG       0.492000
     26 HN1          1.3190     9.5490    67.4850 hn         1 HRG       0.376400
     27 HN21        -0.7900    11.3870    65.7760 hn         1 HRG       0.457000
     28 HN22        -0.8210    10.0680    64.7270 hn         1 HRG       0.457000
@<TRIPOS>BOND
     1     1     2 1   
     2     1    14 1   
     3     1    15 1   
     4     2     3 1   
     5     2    11 1   
     6     2    16 1   
     7     3     5 1   
     8     3    17 1   
     9     3    18 1   
    10     4     5 1   
    11     4     6 1   
    12     4    19 1   
    13     4    20 1   
    14     5    21 1   
    15     5    22 1   
    16     6     7 1   
    17     6    23 1   
    18     6    24 1   
    19     7     8 1   
    20     7    25 1   
    21     8     9 2   
    22     8    10 1   
    23     9    26 1   
    24    10    27 1   
    25    10    28 1   
    26    11    12 1   
    27    11    13 1   
@<TRIPOS>SUBSTRUCTURE
     1 HRG         1 TEMP              0 ****  ****    0 ROOT
