@<TRIPOS>MOLECULE
HRH
   46    49     1     0     0
SMALL
bcc


@<TRIPOS>ATOM
      1 C2          -2.3380    -1.3940     1.0360 ca         1 HRH       0.150900
      2 C3          -3.7140    -1.3470     0.8880 ca         1 HRH      -0.014600
      3 C42          0.3620     0.9440    -3.0510 c3         1 HRH      -0.052800
      4 C12          0.7700    -0.8320    -0.6810 c5         1 HRH       0.256300
      5 C14          2.0930    -1.2260    -0.1170 cc         1 HRH      -0.272600
      6 C15          1.9330    -2.2050     0.8160 cd         1 HRH      -0.179900
      7 C19          3.4710    -0.9810    -0.1760 cc         1 HRH       0.359600
      8 C20          4.2100     0.0440    -0.9820 c3         1 HRH      -0.084000
      9 C22          4.4980     1.2810    -0.1290 c3         1 HRH      -0.085100
     10 C26          5.4890    -0.5190    -1.5930 c3         1 HRH      -0.085100
     11 C30          0.5210    -2.5530     0.9840 c          1 HRH       0.764100
     12 F1          -1.8060    -1.1630     2.2320 f          1 HRH      -0.113900
     13 C4          -4.2840    -1.5320    -0.3610 ca         1 HRH      -0.098000
     14 C6          -3.4630    -1.7640    -1.4540 ca         1 HRH      -0.127000
     15 C8          -2.0880    -1.8350    -1.2990 ca         1 HRH      -0.115000
     16 C10         -1.5090    -1.6550    -0.0470 ca         1 HRH       0.030600
     17 N11         -0.1200    -1.6880     0.1230 n          1 HRH      -0.408000
     18 N16          3.1480    -2.5220     1.2760 na         1 HRH       0.056400
     19 N18          4.0850    -1.7870     0.6850 nd         1 HRH      -0.503800
     20 C32          0.4380     0.6330    -0.5310 ca         1 HRH      -0.100300
     21 C33          0.2570     1.4580    -1.6430 ca         1 HRH      -0.048300
     22 C34         -0.0320     2.8060    -1.4350 ca         1 HRH      -0.128000
     23 C36         -0.1370     3.3120    -0.1520 ca         1 HRH       0.040400
     24 C37          0.0420     2.5000     0.9570 ca         1 HRH      -0.125000
     25 C39          0.3330     1.1640     0.7500 ca         1 HRH      -0.088000
     26 CL1         -0.4980     4.9920     0.0700 cl         1 HRH      -0.108400
     27 CL2         -4.6900    -1.0300     2.2710 cl         1 HRH      -0.073400
     28 H1          -0.3890     0.1790    -3.2590 hc         1 HRH       0.046367
     29 H2           0.2120     1.7470    -3.7690 hc         1 HRH       0.046367
     30 H3           1.3390     0.5030    -3.2550 hc         1 HRH       0.046367
     31 H4           0.7020    -1.1370    -1.7280 h1         1 HRH       0.075700
     32 H5           3.5450     0.3500    -1.7960 hc         1 HRH       0.050700
     33 H6           4.9940     2.0490    -0.7240 hc         1 HRH       0.039867
     34 H7           3.5800     1.7100     0.2760 hc         1 HRH       0.039867
     35 H8           5.1500     1.0310     0.7090 hc         1 HRH       0.039867
     36 H9           5.2770    -1.3370    -2.2830 hc         1 HRH       0.039867
     37 H10          6.0190     0.2570    -2.1460 hc         1 HRH       0.039867
     38 H11          6.1600    -0.8970    -0.8210 hc         1 HRH       0.039867
     39 H12         -5.3580    -1.4910    -0.4740 ha         1 HRH       0.152000
     40 H13         -3.9010    -1.9110    -2.4310 ha         1 HRH       0.143000
     41 H14         -1.4560    -2.0390    -2.1540 ha         1 HRH       0.141000
     42 H15          3.4080    -3.2090     1.9660 hn         1 HRH       0.340700
     43 H16         -0.1710     3.4600    -2.2860 ha         1 HRH       0.147000
     44 H17         -0.0400     2.8990     1.9580 ha         1 HRH       0.153000
     45 H18          0.4800     0.5250     1.6120 ha         1 HRH       0.148000
     46 O31         -0.0070    -3.3920     1.6790 o          1 HRH      -0.575500
@<TRIPOS>BOND
     1     1     2 ar  
     2     1    12 1   
     3     1    16 ar  
     4     2    13 ar  
     5     2    27 1   
     6     3    21 1   
     7     3    28 1   
     8     3    29 1   
     9     3    30 1   
    10     4     5 1   
    11     4    17 1   
    12     4    20 1   
    13     4    31 1   
    14     5     6 2   
    15     5     7 1   
    16     6    11 1   
    17     6    18 1   
    18     7     8 1   
    19     7    19 2   
    20     8     9 1   
    21     8    10 1   
    22     8    32 1   
    23     9    33 1   
    24     9    34 1   
    25     9    35 1   
    26    10    36 1   
    27    10    37 1   
    28    10    38 1   
    29    11    17 1   
    30    11    46 2   
    31    13    14 ar  
    32    13    39 1   
    33    14    15 ar  
    34    14    40 1   
    35    15    16 ar  
    36    15    41 1   
    37    16    17 1   
    38    18    19 1   
    39    18    42 1   
    40    20    21 ar  
    41    20    25 ar  
    42    21    22 ar  
    43    22    23 ar  
    44    22    43 1   
    45    23    24 ar  
    46    23    26 1   
    47    24    25 ar  
    48    24    44 1   
    49    25    45 1   
@<TRIPOS>SUBSTRUCTURE
     1 HRH         1 TEMP              0 ****  ****    0 ROOT
