@<TRIPOS>MOLECULE
HRH
   46    49     1     0     0
SMALL
No Charge or Current Charge


@<TRIPOS>ATOM
      1 C2          -2.5870    -1.5520     0.9520 ca         1 HRH       0.186000
      2 C3          -3.9550    -1.6940     0.6440 ca         1 HRH       0.077000
      3 C42          0.3580     1.0770    -2.9100 c3         1 HRH      -0.052800
      4 C12          0.8140    -0.8470    -0.6280 c5         1 HRH       0.256300
      5 C14          2.0570    -1.2360     0.0880 cc         1 HRH      -0.207300
      6 C15          1.8570    -2.0610     1.0850 cd         1 HRH      -0.230600
      7 C19          3.4140    -0.9520    -0.0520 cc         1 HRH       0.294300
      8 C20          3.9970    -0.0300    -1.1000 c3         1 HRH      -0.084000
      9 C22          4.3080     1.3670    -0.5180 c3         1 HRH      -0.085100
     10 C26          5.2310    -0.6410    -1.8040 c3         1 HRH      -0.085100
     11 C30          0.4350    -2.3710     1.2310 c          1 HRH       0.621600
     12 F1          -2.2230    -1.3160     2.2350 f          1 HRH      -0.149000
     13 C4          -4.3600    -1.8950    -0.6850 ca         1 HRH      -0.080000
     14 C6          -3.3970    -1.9680    -1.7040 ca         1 HRH      -0.109000
     15 C8          -2.0330    -1.8220    -1.3980 ca         1 HRH      -0.097000
     16 C10         -1.6120    -1.5550    -0.0770 ca         1 HRH      -0.062000
     17 N11         -0.2000    -1.5840     0.2120 n          1 HRH      -0.248400
     18 N16          3.1210    -2.3270     1.6080 na         1 HRH       0.056800
     19 N18          4.1090    -1.6080     0.8810 nd         1 HRH      -0.503800
     20 C32          0.6440     0.6650    -0.3860 ca         1 HRH      -0.100300
     21 C33          0.4400     1.5640    -1.4660 ca         1 HRH      -0.048300
     22 C34          0.3000     2.9440    -1.2120 ca         1 HRH      -0.110000
     23 C36          0.3520     3.4390     0.0970 ca         1 HRH       0.132000
     24 C37          0.5390     2.5610     1.1700 ca         1 HRH      -0.107000
     25 C39          0.6810     1.1850     0.9310 ca         1 HRH      -0.070000
     26 Cl1          0.1750     5.1640     0.3930 cl         1 HRH      -0.200000
     27 Cl2         -5.1760    -1.6240     1.9150 cl         1 HRH      -0.165000
     28 H1          -0.4670     0.3670    -3.0400 hc         1 HRH       0.046367
     29 H2           0.1860     1.9030    -3.6100 hc         1 HRH       0.046367
     30 H3           1.2860     0.5810    -3.2190 hc         1 HRH       0.046367
     31 H4           0.8250    -1.1640    -1.6780 h1         1 HRH       0.075700
     32 H5           3.2400     0.1140    -1.8790 hc         1 HRH       0.050700
     33 H6           4.6700     2.0430    -1.3020 hc         1 HRH       0.039867
     34 H7           3.4080     1.8120    -0.0780 hc         1 HRH       0.039867
     35 H8           5.0750     1.3020     0.2630 hc         1 HRH       0.039867
     36 H9           4.9810    -1.6170    -2.2380 hc         1 HRH       0.039867
     37 H10          5.5780     0.0120    -2.6140 hc         1 HRH       0.039867
     38 H11          6.0580    -0.7800    -1.0980 hc         1 HRH       0.039867
     39 H12         -5.4150    -2.0100    -0.9210 ha         1 HRH       0.134000
     40 H13         -3.7070    -2.1520    -2.7310 ha         1 HRH       0.125000
     41 H14         -1.3040    -1.9230    -2.1980 ha         1 HRH       0.123000
     42 H15          3.3510    -2.9350     2.3950 hn         1 HRH       0.391000
     43 H16          0.1460     3.6390    -2.0340 ha         1 HRH       0.129000
     44 H17          0.5750     2.9450     2.1860 ha         1 HRH       0.135000
     45 H18          0.8260     0.5230     1.7810 ha         1 HRH       0.130000
     46 O31         -0.0850    -3.1460     2.0230 o          1 HRH      -0.500000
@<TRIPOS>BOND
     1     1     2 ar  
     2     1    12 1   
     3     1    16 ar  
     4     2    13 ar  
     5     2    27 1   
     6     3    21 1   
     7     3    28 1   
     8     3    29 1   
     9     3    30 1   
    10     4     5 1   
    11     4    17 1   
    12     4    20 1   
    13     4    31 1   
    14     5     6 2   
    15     5     7 1   
    16     6    11 1   
    17     6    18 1   
    18     7     8 1   
    19     7    19 2   
    20     8     9 1   
    21     8    10 1   
    22     8    32 1   
    23     9    33 1   
    24     9    34 1   
    25     9    35 1   
    26    10    36 1   
    27    10    37 1   
    28    10    38 1   
    29    11    17 1   
    30    11    46 2   
    31    13    14 ar  
    32    13    39 1   
    33    14    15 ar  
    34    14    40 1   
    35    15    16 ar  
    36    15    41 1   
    37    16    17 1   
    38    18    19 1   
    39    18    42 1   
    40    20    21 ar  
    41    20    25 ar  
    42    21    22 ar  
    43    22    23 ar  
    44    22    43 1   
    45    23    24 ar  
    46    23    26 1   
    47    24    25 ar  
    48    24    44 1   
    49    25    45 1   
@<TRIPOS>SUBSTRUCTURE
     1 HRH         1 TEMP              0 ****  ****    0 ROOT
