@<TRIPOS>MOLECULE
HRI
   19    18     1     0     0
SMALL
No Charge or Current Charge


@<TRIPOS>ATOM
      1 CZ           0.0540     0.3070    -0.5260 c3         1 HRI       0.041300
      2 CH1         -0.6080    -0.3800     0.7030 c3         1 HRI      -0.069400
      3 CF1         -0.0590     0.0400     2.0980 c3         1 HRI      -0.066700
      4 CI1         -0.2370     1.5510     2.3860 c3         1 HRI      -0.081600
      5 CI2         -0.7040    -0.8070     3.2190 c3         1 HRI      -0.081600
      6 CH2         -0.7000    -0.0000    -1.8580 c          1 HRI       0.724000
      7 OF2         -0.9920    -1.1610    -2.1220 o          1 HRI      -0.713000
      8 OF3         -0.9670     0.9380    -2.5990 o          1 HRI      -0.713000
      9 Cl           1.8440    -0.1030    -0.6210 cl         1 HRI      -0.378000
     10 HCZ          0.0040     1.3940    -0.3900 h1         1 HRI       0.048700
     11 HCH1        -0.4990    -1.4660     0.5920 hc         1 HRI       0.053700
     12 HCH2        -1.6860    -0.1750     0.6760 hc         1 HRI       0.053700
     13 HCF1         1.0160    -0.1730     2.1210 hc         1 HRI       0.050700
     14 HI11         0.1120     1.7950     3.3960 hc         1 HRI       0.022033
     15 HI12         0.3430     2.1600     1.6830 hc         1 HRI       0.022033
     16 HI13        -1.2920     1.8420     2.3090 hc         1 HRI       0.022033
     17 HI21        -1.7870    -0.6390     3.2630 hc         1 HRI       0.022033
     18 HI22        -0.5280    -1.8760     3.0470 hc         1 HRI       0.022033
     19 HI23        -0.2760    -0.5490     4.1950 hc         1 HRI       0.022033
@<TRIPOS>BOND
     1     1     2 1   
     2     1     6 1   
     3     1     9 1   
     4     1    10 1   
     5     2     3 1   
     6     2    11 1   
     7     2    12 1   
     8     3     4 1   
     9     3     5 1   
    10     3    13 1   
    11     4    14 1   
    12     4    15 1   
    13     4    16 1   
    14     5    17 1   
    15     5    18 1   
    16     5    19 1   
    17     6     7 1   
    18     6     8 1   
@<TRIPOS>SUBSTRUCTURE
     1 HRI         1 TEMP              0 ****  ****    0 ROOT
