@<TRIPOS>MOLECULE
HRI
   19    18     1     0     0
SMALL
abcg2


@<TRIPOS>ATOM
      1 CZ          -0.0720     0.3850    -0.4730 c3         1 HRI       0.041300
      2 CH1         -0.6080    -0.3670     0.7220 c3         1 HRI      -0.069400
      3 CF1         -0.0360     0.0190     2.0860 c3         1 HRI      -0.066700
      4 CI1         -0.1680     1.5120     2.3720 c3         1 HRI      -0.081600
      5 CI2         -0.7240    -0.7990     3.1750 c3         1 HRI      -0.081600
      6 CH2         -0.6740    -0.0510    -1.8330 c          1 HRI       0.724000
      7 OF2         -0.9390    -1.2580    -1.9650 o          1 HRI      -0.713000
      8 OF3         -0.8240     0.8570    -2.6700 o          1 HRI      -0.713000
      9 CL           1.7340     0.1280    -0.6100 cl         1 HRI      -0.378000
     10 HCZ         -0.1840     1.4610    -0.3500 h1         1 HRI       0.048700
     11 HCH1        -0.4810    -1.4380     0.5560 hc         1 HRI       0.053700
     12 HCH2        -1.6910    -0.1870     0.7360 hc         1 HRI       0.053700
     13 HCF1         1.0280    -0.2360     2.0960 hc         1 HRI       0.050700
     14 HI11         0.1800     1.7460     3.3800 hc         1 HRI       0.022033
     15 HI12         0.4190     2.1180     1.6800 hc         1 HRI       0.022033
     16 HI13        -1.2090     1.8360     2.2990 hc         1 HRI       0.022033
     17 HI21        -1.7950    -0.5860     3.2080 hc         1 HRI       0.022033
     18 HI22        -0.6060    -1.8710     3.0050 hc         1 HRI       0.022033
     19 HI23        -0.3110    -0.5730     4.1600 hc         1 HRI       0.022033
@<TRIPOS>BOND
     1     1     2 1   
     2     1     6 1   
     3     1     9 1   
     4     1    10 1   
     5     2     3 1   
     6     2    11 1   
     7     2    12 1   
     8     3     4 1   
     9     3     5 1   
    10     3    13 1   
    11     4    14 1   
    12     4    15 1   
    13     4    16 1   
    14     5    17 1   
    15     5    18 1   
    16     5    19 1   
    17     6     7 1   
    18     6     8 1   
@<TRIPOS>SUBSTRUCTURE
     1 HRI         1 TEMP              0 ****  ****    0 ROOT
