@<TRIPOS>MOLECULE
HRJ
   34    36     1     0     0
SMALL
No Charge or Current Charge


@<TRIPOS>ATOM
      1 OAB          4.0430     2.8450     0.0530 o          1 HRJ      -0.692500
      2 CAO          4.6550     1.7850    -0.0070 c          1 HRJ       0.726200
      3 OAE          5.8780     1.7500    -0.0530 o          1 HRJ      -0.692500
      4 CAV          3.8170     0.5240    -0.0190 cc         1 HRJ      -0.020200
      5 NAL          2.3940     0.5450     0.0280 na         1 HRJ      -0.570000
      6 CAT          4.3480    -0.7610    -0.1040 cd         1 HRJ      -0.029100
      7 OAF          5.6750    -1.0620    -0.1800 oh         1 HRJ      -0.490100
      8 CAW          3.5090    -1.9740    -0.1380 c          1 HRJ       0.522500
      9 OAC          3.9910    -3.1000    -0.2340 o          1 HRJ      -0.674100
     10 CAJ          2.0860    -1.7620    -0.0400 cc         1 HRJ      -0.398200
     11 CAR          1.4930    -0.5300     0.1080 cd         1 HRJ       0.158800
     12 CAU          0.0140    -0.3260     0.1410 ca         1 HRJ      -0.023800
     13 CAP         -0.6110     0.8280     0.7050 ca         1 HRJ      -0.050300
     14 CAA          0.1550     1.9240     1.4480 c3         1 HRJ      -0.061800
     15 CAI         -2.0160     0.9590     0.6600 ca         1 HRJ      -0.071000
     16 CAH         -0.8260    -1.3180    -0.4200 ca         1 HRJ      -0.087000
     17 CAG         -2.2210    -1.1750    -0.4530 ca         1 HRJ      -0.100000
     18 CAQ         -2.8380    -0.0280     0.0800 ca         1 HRJ      -0.145900
     19 CAS         -4.2990     0.1470     0.0600 cc         1 HRJ       0.453500
     20 NAK         -4.9840     1.1510     0.5840 nd         1 HRJ      -0.324700
     21 OAN         -6.3700     0.8230     0.2750 os         1 HRJ      -0.230100
     22 CAX         -6.4090    -0.3650    -0.4190 c          1 HRJ       0.653100
     23 OAD         -7.3850    -0.9540    -0.8500 o          1 HRJ      -0.515000
     24 NAM         -5.1320    -0.7310    -0.5220 ns         1 HRJ      -0.559900
     25 H2           5.7130    -2.0470    -0.2390 ho         1 HRJ       0.464000
     26 H3           1.5130    -2.6780    -0.0380 ha         1 HRJ       0.187000
     27 H5           0.5910     2.6520     0.7540 hc         1 HRJ       0.058700
     28 H6          -0.5020     2.4850     2.1230 hc         1 HRJ       0.058700
     29 H7           0.9520     1.5090     2.0770 hc         1 HRJ       0.058700
     30 H8          -2.4750     1.8440     1.0960 ha         1 HRJ       0.133000
     31 H9          -0.4030    -2.2060    -0.8800 ha         1 HRJ       0.133000
     32 H10         -2.8090    -1.9680    -0.9070 ha         1 HRJ       0.107000
     33 H11         -4.8620    -1.5760    -0.9990 hn         1 HRJ       0.481000
     34 H12          1.9790     1.4750     0.0180 hn         1 HRJ       0.540000
@<TRIPOS>BOND
     1     1     2 1   
     2     2     3 1   
     3     2     4 1   
     4     4     5 1   
     5     4     6 2   
     6     5    11 1   
     7     5    34 1   
     8     6     7 1   
     9     6     8 1   
    10     7    25 1   
    11     8     9 2   
    12     8    10 1   
    13    10    11 2   
    14    10    26 1   
    15    11    12 1   
    16    12    13 ar  
    17    12    16 ar  
    18    13    14 1   
    19    13    15 ar  
    20    14    27 1   
    21    14    28 1   
    22    14    29 1   
    23    15    18 ar  
    24    15    30 1   
    25    16    17 ar  
    26    16    31 1   
    27    17    18 ar  
    28    17    32 1   
    29    18    19 1   
    30    19    20 2   
    31    19    24 1   
    32    20    21 1   
    33    21    22 1   
    34    22    23 2   
    35    22    24 1   
    36    24    33 1   
@<TRIPOS>SUBSTRUCTURE
     1 HRJ         1 TEMP              0 ****  ****    0 ROOT
