@<TRIPOS>MOLECULE
HRJ
   34    36     1     0     0
SMALL
abcg2


@<TRIPOS>ATOM
      1 OAB          3.4040     2.6700    -1.0550 o          1 HRJ      -0.692500
      2 CAO          4.2380     1.7830    -0.7810 c          1 HRJ       0.726200
      3 OAE          5.4710     1.8470    -0.8310 o          1 HRJ      -0.692500
      4 CAV          3.6200     0.4660    -0.3320 cc         1 HRJ      -0.020200
      5 NAL          2.2570     0.4850    -0.2790 na         1 HRJ      -0.570000
      6 CAT          4.2590    -0.6900     0.0030 cd         1 HRJ      -0.029100
      7 OAF          5.5880    -0.8370    -0.0030 oh         1 HRJ      -0.490100
      8 CAW          3.5120    -1.8790     0.3960 c          1 HRJ       0.522500
      9 OAC          4.1510    -2.9110     0.6810 o          1 HRJ      -0.674100
     10 CAJ          2.0970    -1.7420     0.4250 cc         1 HRJ      -0.398200
     11 CAR          1.5000    -0.5550     0.0850 cd         1 HRJ       0.158800
     12 CAU          0.0350    -0.3660     0.1030 ca         1 HRJ      -0.023800
     13 CAP         -0.5630     0.6020     0.9240 ca         1 HRJ      -0.050300
     14 CAA          0.2410     1.4810     1.8390 c3         1 HRJ      -0.061800
     15 CAI         -1.9450     0.7260     0.8920 ca         1 HRJ      -0.071000
     16 CAH         -0.7510    -1.1860    -0.7000 ca         1 HRJ      -0.087000
     17 CAG         -2.1280    -1.0500    -0.7240 ca         1 HRJ      -0.100000
     18 CAQ         -2.7300    -0.0840     0.0740 ca         1 HRJ      -0.145900
     19 CAS         -4.1800     0.0810     0.0830 cc         1 HRJ       0.453500
     20 NAK         -4.8310     0.6840     1.0160 nd         1 HRJ      -0.324700
     21 OAN         -6.1610     0.6270     0.6370 os         1 HRJ      -0.230100
     22 CAX         -6.2930    -0.0270    -0.5350 c          1 HRJ       0.653100
     23 OAD         -7.3390    -0.2170    -1.0920 o          1 HRJ      -0.515000
     24 NAM         -5.0230    -0.3780    -0.8810 ns         1 HRJ      -0.559900
     25 H2           5.7370    -1.7620     0.2680 ho         1 HRJ       0.464000
     26 H3           1.4850    -2.5790     0.7320 ha         1 HRJ       0.187000
     27 H5           0.7240     2.2970     1.2980 hc         1 HRJ       0.058700
     28 H6          -0.3970     1.9310     2.5980 hc         1 HRJ       0.058700
     29 H7           1.0250     0.9210     2.3490 hc         1 HRJ       0.058700
     30 H8          -2.4190     1.4710     1.5180 ha         1 HRJ       0.133000
     31 H9          -0.2790    -1.9350    -1.3230 ha         1 HRJ       0.133000
     32 H10         -2.7100    -1.7090    -1.3540 ha         1 HRJ       0.107000
     33 H11         -4.7800    -0.8460    -1.7420 hn         1 HRJ       0.481000
     34 H12          1.8510     1.3650    -0.5830 hn         1 HRJ       0.540000
@<TRIPOS>BOND
     1     1     2 1   
     2     2     3 1   
     3     2     4 1   
     4     4     5 1   
     5     4     6 2   
     6     5    11 1   
     7     5    34 1   
     8     6     7 1   
     9     6     8 1   
    10     7    25 1   
    11     8     9 2   
    12     8    10 1   
    13    10    11 2   
    14    10    26 1   
    15    11    12 1   
    16    12    13 ar  
    17    12    16 ar  
    18    13    14 1   
    19    13    15 ar  
    20    14    27 1   
    21    14    28 1   
    22    14    29 1   
    23    15    18 ar  
    24    15    30 1   
    25    16    17 ar  
    26    16    31 1   
    27    17    18 ar  
    28    17    32 1   
    29    18    19 1   
    30    19    20 2   
    31    19    24 1   
    32    20    21 1   
    33    21    22 1   
    34    22    23 2   
    35    22    24 1   
    36    24    33 1   
@<TRIPOS>SUBSTRUCTURE
     1 HRJ         1 TEMP              0 ****  ****    0 ROOT
