@<TRIPOS>MOLECULE
HRK
   60    63     1     0     0
SMALL
abcg2


@<TRIPOS>ATOM
      1 C02        -18.4320     6.4700    -0.7260 c6         1 HRK       0.133300
      2 C03        -19.9460     6.2660    -0.8000 c6         1 HRK       0.144300
      3 C04        -20.3840     4.9590    -0.1830 c3         1 HRK       0.170600
      4 C07        -20.3890     8.5900    -0.7120 c6         1 HRK       0.249300
      5 C09        -22.8940     9.7560    -0.7320 c6         1 HRK       0.295300
      6 C10        -24.0290    10.4010     0.0610 c6         1 HRK       0.144300
      7 C12        -25.2900    10.3890    -0.7990 c6         1 HRK       0.091300
      8 C14        -25.0400    11.0360    -2.1520 c6         1 HRK       0.139300
      9 C16        -23.8580    10.3460    -2.8310 c6         1 HRK       0.168300
     10 C17        -23.4740    10.9450    -4.1650 c3         1 HRK       0.174600
     11 C20        -18.8980     8.9660    -0.6940 c6         1 HRK       0.150300
     12 C22        -18.1030     7.8350    -1.3440 c6         1 HRK       0.084300
     13 C24        -15.8690     8.3910    -0.2800 cc         1 HRK      -0.175000
     14 C25        -14.6160     8.5640    -0.8350 cd         1 HRK       0.250500
     15 C26        -13.3440     8.8890    -0.1860 ca         1 HRK      -0.104500
     16 C27        -13.2490     8.9530     1.2090 ca         1 HRK      -0.094500
     17 C28        -12.0440     9.2680     1.8230 ca         1 HRK      -0.113500
     18 C29        -10.9110     9.5210     1.0560 ca         1 HRK      -0.108000
     19 C30        -10.9940     9.4560    -0.3320 ca         1 HRK      -0.113500
     20 C31        -12.1980     9.1430    -0.9490 ca         1 HRK      -0.094500
     21 N23        -16.6740     8.1100    -1.3240 na         1 HRK       0.123800
     22 N32        -14.7370     8.3760    -2.1820 nd         1 HRK      -0.352000
     23 N33        -15.9770     8.1060    -2.4730 nc         1 HRK      -0.201800
     24 O01        -17.9850     6.4250     0.6260 oh         1 HRK      -0.711000
     25 O05        -21.7490     4.7300    -0.5300 oh         1 HRK      -0.719000
     26 O06        -20.6130     7.3300    -0.1090 os         1 HRK      -0.412000
     27 O11        -24.2250     9.6700     1.2610 oh         1 HRK      -0.703000
     28 O13        -26.3370    11.0960    -0.1260 oh         1 HRK      -0.671000
     29 O15        -26.1800    10.9110    -2.9930 oh         1 HRK      -0.721000
     30 O18        -23.2020    12.3360    -4.0120 oh         1 HRK      -0.716000
     31 O19        -22.7170    10.4280    -1.9660 os         1 HRK      -0.440000
     32 O21        -18.6520    10.1350    -1.4550 oh         1 HRK      -0.708000
     33 S08        -21.3350     9.8450     0.1930 ss         1 HRK      -0.308000
     34 H021       -17.9370     5.6970    -1.3170 h1         1 HRK       0.060700
     35 H031       -20.2460     6.2790    -1.8560 h1         1 HRK       0.059700
     36 H042       -19.7440     4.1600    -0.5720 h1         1 HRK       0.038200
     37 H041       -20.2580     5.0080     0.9010 h1         1 HRK       0.038200
     38 H071       -20.7360     8.5870    -1.7510 h2         1 HRK       0.072700
     39 H091       -23.1220     8.6980    -0.9010 h2         1 HRK       0.076700
     40 H101       -23.7620    11.4420     0.2820 h1         1 HRK       0.072700
     41 H121       -25.5930     9.3490    -0.9560 h1         1 HRK       0.053700
     42 H141       -24.7910    12.0910    -2.0030 h1         1 HRK       0.082700
     43 H161       -24.1110     9.2920    -3.0020 h1         1 HRK       0.049700
     44 H172       -24.2990    10.7810    -4.8630 h1         1 HRK       0.039700
     45 H171       -22.5930    10.4150    -4.5400 h1         1 HRK       0.039700
     46 H201       -18.5800     9.0960     0.3450 h1         1 HRK       0.071700
     47 H221       -18.3710     7.8000    -2.4010 h1         1 HRK       0.104700
     48 H241       -16.2310     8.4440     0.7290 h4         1 HRK       0.175000
     49 H271       -14.1210     8.7550     1.8200 ha         1 HRK       0.119500
     50 H281       -11.9900     9.3130     2.9030 ha         1 HRK       0.112000
     51 H291        -9.9720     9.7680     1.5350 ha         1 HRK       0.112000
     52 H301       -10.1170     9.6500    -0.9380 ha         1 HRK       0.112000
     53 H311       -12.2580     9.0960    -2.0280 ha         1 HRK       0.119500
     54 H011       -17.3900     5.6760     0.7360 ho         1 HRK       0.512000
     55 H051       -22.0580     3.9540    -0.0480 ho         1 HRK       0.508000
     56 H111       -24.9990    10.0450     1.7040 ho         1 HRK       0.512000
     57 H131       -27.0290    10.4730     0.1230 ho         1 HRK       0.451000
     58 H151       -26.9380    11.2520    -2.4980 ho         1 HRK       0.516000
     59 H181       -23.0000    12.6990    -4.8820 ho         1 HRK       0.505000
     60 H211       -19.1680    10.8580    -1.0730 ho         1 HRK       0.530000
@<TRIPOS>BOND
     1     1     2 1   
     2     1    12 1   
     3     1    24 1   
     4     1    34 1   
     5     2     3 1   
     6     2    26 1   
     7     2    35 1   
     8     3    25 1   
     9     3    36 1   
    10     3    37 1   
    11     4    11 1   
    12     4    26 1   
    13     4    33 1   
    14     4    38 1   
    15     5     6 1   
    16     5    31 1   
    17     5    33 1   
    18     5    39 1   
    19     6     7 1   
    20     6    27 1   
    21     6    40 1   
    22     7     8 1   
    23     7    28 1   
    24     7    41 1   
    25     8     9 1   
    26     8    29 1   
    27     8    42 1   
    28     9    10 1   
    29     9    31 1   
    30     9    43 1   
    31    10    30 1   
    32    10    44 1   
    33    10    45 1   
    34    11    12 1   
    35    11    32 1   
    36    11    46 1   
    37    12    21 1   
    38    12    47 1   
    39    13    14 2   
    40    13    21 1   
    41    13    48 1   
    42    14    15 1   
    43    14    22 1   
    44    15    16 ar  
    45    15    20 ar  
    46    16    17 ar  
    47    16    49 1   
    48    17    18 ar  
    49    17    50 1   
    50    18    19 ar  
    51    18    51 1   
    52    19    20 ar  
    53    19    52 1   
    54    20    53 1   
    55    21    23 1   
    56    22    23 2   
    57    24    54 1   
    58    25    55 1   
    59    27    56 1   
    60    28    57 1   
    61    29    58 1   
    62    30    59 1   
    63    32    60 1   
@<TRIPOS>SUBSTRUCTURE
     1 HRK         1 TEMP              0 ****  ****    0 ROOT
