@<TRIPOS>MOLECULE
HRK
   60    63     1     0     0
SMALL
No Charge or Current Charge


@<TRIPOS>ATOM
      1 C02        -18.4060     6.8830    -1.2250 c6         1 HRK       0.133300
      2 C03        -19.9540     6.8600    -1.4490 c6         1 HRK       0.144300
      3 C04        -20.6180     5.4890    -1.0930 c3         1 HRK       0.170600
      4 C07        -20.1860     9.2330    -1.0300 c6         1 HRK       0.249300
      5 C09        -22.8600     9.9130    -0.5880 c6         1 HRK       0.295300
      6 C10        -24.0030    10.6770     0.1570 c6         1 HRK       0.144300
      7 C12        -25.3710    10.2170    -0.4240 c6         1 HRK       0.091300
      8 C14        -25.4070    10.4220    -1.9660 c6         1 HRK       0.139300
      9 C16        -24.1840     9.6990    -2.6180 c6         1 HRK       0.168300
     10 C17        -24.0850     9.9440    -4.1620 c3         1 HRK       0.174600
     11 C20        -18.6440     9.4180    -0.8430 c6         1 HRK       0.150300
     12 C22        -17.8870     8.2990    -1.6290 c6         1 HRK       0.084300
     13 C24        -15.7040     8.5790    -0.3320 cc         1 HRK      -0.175000
     14 C25        -14.4000     8.5990    -0.7420 cd         1 HRK       0.250500
     15 C26        -13.1960     8.7650     0.1020 ca         1 HRK      -0.104500
     16 C27        -13.3150     8.9260     1.5010 ca         1 HRK      -0.094500
     17 C28        -12.1710     9.0820     2.3030 ca         1 HRK      -0.113500
     18 C29        -10.8940     9.0800     1.7200 ca         1 HRK      -0.108000
     19 C30        -10.7620     8.9210     0.3310 ca         1 HRK      -0.113500
     20 C31        -11.9050     8.7640    -0.4730 ca         1 HRK      -0.094500
     21 N23        -16.4110     8.3990    -1.4990 na         1 HRK       0.123800
     22 N32        -14.3550     8.4320    -2.1110 nd         1 HRK      -0.352000
     23 N33        -15.5700     8.3090    -2.5700 nc         1 HRK      -0.201800
     24 O01        -18.0610     6.5900     0.1510 oh         1 HRK      -0.711000
     25 O05        -22.0380     5.4690    -1.3470 oh         1 HRK      -0.719000
     26 O06        -20.5830     7.8980    -0.6560 os         1 HRK      -0.412000
     27 O11        -23.9810    10.4510     1.5870 oh         1 HRK      -0.703000
     28 O13        -26.4550    10.9240     0.2080 oh         1 HRK      -0.671000
     29 O15        -26.6660     9.9380    -2.4710 oh         1 HRK      -0.721000
     30 O18        -23.8150    11.3180    -4.5210 oh         1 HRK      -0.716000
     31 O19        -22.9520    10.1640    -2.0070 os         1 HRK      -0.440000
     32 O21        -18.2210    10.7310    -1.2810 oh         1 HRK      -0.708000
     33 S08        -21.1770    10.4220    -0.0250 ss         1 HRK      -0.308000
     34 H021       -17.9420     6.1440    -1.8970 h1         1 HRK       0.060700
     35 H031       -20.1630     7.0560    -2.5110 h1         1 HRK       0.059700
     36 H042       -20.1210     4.7060    -1.6820 h1         1 HRK       0.038200
     37 H041       -20.4250     5.2740    -0.0340 h1         1 HRK       0.038200
     38 H071       -20.4500     9.4130    -2.0840 h2         1 HRK       0.072700
     39 H091       -22.9520     8.8340    -0.3930 h2         1 HRK       0.076700
     40 H101       -23.8790    11.7500    -0.0550 h1         1 HRK       0.072700
     41 H121       -25.4710     9.1390    -0.2220 h1         1 HRK       0.053700
     42 H141       -25.3090    11.5000    -2.1710 h1         1 HRK       0.082700
     43 H161       -24.2710     8.6150    -2.4500 h1         1 HRK       0.049700
     44 H172       -25.0220     9.6070    -4.6260 h1         1 HRK       0.039700
     45 H171       -23.2880     9.2950    -4.5480 h1         1 HRK       0.039700
     46 H201       -18.4260     9.2950     0.2290 h1         1 HRK       0.071700
     47 H221       -18.1190     8.4410    -2.6930 h1         1 HRK       0.104700
     48 H241       -16.1610     8.6650     0.6420 h4         1 HRK       0.175000
     49 H271       -14.2920     8.9300     1.9770 ha         1 HRK       0.119500
     50 H281       -12.2760     9.2050     3.3790 ha         1 HRK       0.112000
     51 H291       -10.0100     9.2010     2.3420 ha         1 HRK       0.112000
     52 H301        -9.7740     8.9190    -0.1230 ha         1 HRK       0.112000
     53 H311       -11.7780     8.6420    -1.5460 ha         1 HRK       0.119500
     54 H011       -17.9670     5.6120     0.2360 ho         1 HRK       0.512000
     55 H051       -22.3740     4.5970    -1.0340 ho         1 HRK       0.508000
     56 H111       -23.0990    10.7480     1.9130 ho         1 HRK       0.512000
     57 H131       -26.2050    10.9760     1.1600 ho         1 HRK       0.451000
     58 H151       -27.3240    10.2040    -1.7840 ho         1 HRK       0.516000
     59 H181       -23.7160    11.3440    -5.5010 ho         1 HRK       0.505000
     60 H211       -18.7070    11.3910    -0.7330 ho         1 HRK       0.530000
@<TRIPOS>BOND
     1     1     2 1   
     2     1    12 1   
     3     1    24 1   
     4     1    34 1   
     5     2     3 1   
     6     2    26 1   
     7     2    35 1   
     8     3    25 1   
     9     3    36 1   
    10     3    37 1   
    11     4    11 1   
    12     4    26 1   
    13     4    33 1   
    14     4    38 1   
    15     5     6 1   
    16     5    31 1   
    17     5    33 1   
    18     5    39 1   
    19     6     7 1   
    20     6    27 1   
    21     6    40 1   
    22     7     8 1   
    23     7    28 1   
    24     7    41 1   
    25     8     9 1   
    26     8    29 1   
    27     8    42 1   
    28     9    10 1   
    29     9    31 1   
    30     9    43 1   
    31    10    30 1   
    32    10    44 1   
    33    10    45 1   
    34    11    12 1   
    35    11    32 1   
    36    11    46 1   
    37    12    21 1   
    38    12    47 1   
    39    13    14 2   
    40    13    21 1   
    41    13    48 1   
    42    14    15 1   
    43    14    22 1   
    44    15    16 ar  
    45    15    20 ar  
    46    16    17 ar  
    47    16    49 1   
    48    17    18 ar  
    49    17    50 1   
    50    18    19 ar  
    51    18    51 1   
    52    19    20 ar  
    53    19    52 1   
    54    20    53 1   
    55    21    23 1   
    56    22    23 2   
    57    24    54 1   
    58    25    55 1   
    59    27    56 1   
    60    28    57 1   
    61    29    58 1   
    62    30    59 1   
    63    32    60 1   
@<TRIPOS>SUBSTRUCTURE
     1 HRK         1 TEMP              0 ****  ****    0 ROOT
