@<TRIPOS>MOLECULE
HRL
   34    35     1     0     0
SMALL
bcc


@<TRIPOS>ATOM
      1 C15        -11.0300    12.6390   -23.7610 c          1 HRL       0.829100
      2 C20         -6.3340    13.3940   -22.0560 c          1 HRL       0.936200
      3 C1          -3.4980     6.4470   -25.7070 c3         1 HRL       0.132700
      4 C3          -3.0750     8.6880   -25.0310 ca         1 HRL       0.119100
      5 C4          -1.6970     8.5140   -25.0920 ca         1 HRL      -0.234000
      6 C5          -0.8510     9.5760   -24.7890 ca         1 HRL      -0.123000
      7 C6          -1.3730    10.8060   -24.4320 ca         1 HRL      -0.169000
      8 C7          -2.7540    10.9710   -24.3730 ca         1 HRL      -0.072000
      9 C8          -3.6220     9.9280   -24.6570 ca         1 HRL      -0.083300
     10 C9          -5.1220    10.0720   -24.6140 c3         1 HRL       0.279100
     11 C11         -6.8510    11.6500   -23.8950 ca         1 HRL       0.053300
     12 C12         -7.8480    11.0360   -24.6770 ca         1 HRL       0.261200
     13 C14         -9.5420    12.3080   -23.8070 ca         1 HRL       0.279800
     14 C18         -8.6300    12.9710   -22.9920 ca         1 HRL      -0.154300
     15 C19         -7.2780    12.6630   -23.0050 ca         1 HRL      -0.211600
     16 N13         -9.1290    11.3530   -24.6380 nb         1 HRL      -0.637000
     17 O16        -11.7720    12.0270   -24.5520 o          1 HRL      -0.841800
     18 O17        -11.3750    13.4990   -22.9230 o          1 HRL      -0.841800
     19 O21         -6.7960    14.3630   -21.4350 o          1 HRL      -0.847300
     20 O22         -5.1630    12.9490   -21.9620 o          1 HRL      -0.847300
     21 H11         -4.3780     5.8330   -25.8800 h1         1 HRL       0.027700
     22 H13         -2.9130     6.4900   -26.6300 h1         1 HRL       0.027700
     23 H12         -2.8910     5.9810   -24.9270 h1         1 HRL       0.027700
     24 H41         -1.2660     7.5630   -25.3750 ha         1 HRL       0.112000
     25 H51          0.2210     9.4290   -24.8390 ha         1 HRL       0.105000
     26 H61         -0.7190    11.6360   -24.2020 ha         1 HRL       0.123000
     27 H71         -3.1510    11.9410   -24.1020 ha         1 HRL       0.182000
     28 H92         -5.4940    10.0300   -25.6440 h1         1 HRL       0.032700
     29 H91         -5.5600     9.2000   -24.1090 h1         1 HRL       0.032700
     30 H121        -7.5810    10.2430   -25.3670 h4         1 HRL      -0.032900
     31 H181        -8.9840    13.7390   -22.3220 ha         1 HRL       0.166000
     32 H101        -5.0090    11.6550   -23.1980 hn         1 HRL       0.475800
     33 N10         -5.5360    11.3010   -23.9960 nu         1 HRL      -0.795600
     34 O2          -3.9680     7.7220   -25.3210 os         1 HRL      -0.309900
@<TRIPOS>BOND
     1     1    13 1   
     2     1    17 1   
     3     1    18 1   
     4     2    15 1   
     5     2    19 1   
     6     2    20 1   
     7     3    21 1   
     8     3    22 1   
     9     3    23 1   
    10     3    34 1   
    11     4     5 ar  
    12     4     9 ar  
    13     4    34 1   
    14     5     6 ar  
    15     5    24 1   
    16     6     7 ar  
    17     6    25 1   
    18     7     8 ar  
    19     7    26 1   
    20     8     9 ar  
    21     8    27 1   
    22     9    10 1   
    23    10    28 1   
    24    10    29 1   
    25    10    33 1   
    26    11    12 ar  
    27    11    15 ar  
    28    11    33 1   
    29    12    16 ar  
    30    12    30 1   
    31    13    14 ar  
    32    13    16 ar  
    33    14    15 ar  
    34    14    31 1   
    35    32    33 1   
@<TRIPOS>SUBSTRUCTURE
     1 HRL         1 TEMP              0 ****  ****    0 ROOT
