@<TRIPOS>MOLECULE
HRL
   34    35     1     0     0
SMALL
No Charge or Current Charge


@<TRIPOS>ATOM
      1 C15        -11.0370    12.9210   -23.5790 c          1 HRL       0.618500
      2 C20         -6.4030    12.1240   -21.6010 c          1 HRL       0.725600
      3 C1          -3.5340     6.4380   -24.5350 c3         1 HRL       0.155900
      4 C3          -3.0760     8.8340   -24.9480 ca         1 HRL       0.119100
      5 C4          -1.6800     8.6440   -24.8230 ca         1 HRL      -0.216000
      6 C5          -0.7990     9.7290   -24.9670 ca         1 HRL      -0.105000
      7 C6          -1.3030    11.0090   -25.2380 ca         1 HRL      -0.151000
      8 C7          -2.6880    11.2080   -25.3640 ca         1 HRL      -0.054000
      9 C8          -3.5830    10.1280   -25.2180 ca         1 HRL      -0.083300
     10 C9          -5.0810    10.3870   -25.3730 c3         1 HRL       0.279100
     11 C11         -6.8920    11.6700   -24.0930 ca         1 HRL       0.257000
     12 C12         -7.8400    11.6910   -25.1550 ca         1 HRL       0.195900
     13 C14         -9.5610    12.4730   -23.7800 ca         1 HRL       0.214500
     14 C18         -8.6740    12.4840   -22.6750 ca         1 HRL      -0.071000
     15 C19         -7.3190    12.0820   -22.8090 ca         1 HRL      -0.211600
     16 N13         -9.1300    12.0740   -25.0180 nb         1 HRL      -0.637000
     17 O16        -11.8070    12.9180   -24.5350 o          1 HRL      -0.736500
     18 O17        -11.4050    13.2690   -22.4620 o          1 HRL      -0.736500
     19 O21         -6.7380    12.8170   -20.6530 o          1 HRL      -0.742000
     20 O22         -5.3750    11.4600   -21.5980 o          1 HRL      -0.742000
     21 H11         -4.4010     5.7690   -24.4700 h1         1 HRL       0.027700
     22 H13         -2.8760     6.0660   -25.3310 h1         1 HRL       0.027700
     23 H12         -2.9960     6.3920   -23.5800 h1         1 HRL       0.027700
     24 H41         -1.2590     7.6650   -24.6160 ha         1 HRL       0.094000
     25 H51          0.2730     9.5760   -24.8700 ha         1 HRL       0.087000
     26 H61         -0.6210    11.8490   -25.3500 ha         1 HRL       0.105000
     27 H71         -3.0720    12.2050   -25.5730 ha         1 HRL       0.164000
     28 H92         -5.2560    10.8610   -26.3480 h1         1 HRL       0.032700
     29 H91         -5.6440     9.4440   -25.3630 h1         1 HRL       0.032700
     30 H121        -7.5570    11.3870   -26.1620 h4         1 HRL      -0.032900
     31 H181        -9.0450    12.8060   -21.7060 ha         1 HRL       0.148000
     32 H101        -5.0580    11.1940   -23.4040 hn         1 HRL       0.531000
     33 N10         -5.5670    11.2630   -24.2990 nu         1 HRL      -0.989200
     34 O2          -3.9640     7.7820   -24.8150 os         1 HRL      -0.333100
@<TRIPOS>BOND
     1     1    13 1   
     2     1    17 1   
     3     1    18 1   
     4     2    15 1   
     5     2    19 1   
     6     2    20 1   
     7     3    21 1   
     8     3    22 1   
     9     3    23 1   
    10     3    34 1   
    11     4     5 ar  
    12     4     9 ar  
    13     4    34 1   
    14     5     6 ar  
    15     5    24 1   
    16     6     7 ar  
    17     6    25 1   
    18     7     8 ar  
    19     7    26 1   
    20     8     9 ar  
    21     8    27 1   
    22     9    10 1   
    23    10    28 1   
    24    10    29 1   
    25    10    33 1   
    26    11    12 ar  
    27    11    15 ar  
    28    11    33 1   
    29    12    16 ar  
    30    12    30 1   
    31    13    14 ar  
    32    13    16 ar  
    33    14    15 ar  
    34    14    31 1   
    35    32    33 1   
@<TRIPOS>SUBSTRUCTURE
     1 HRL         1 TEMP              0 ****  ****    0 ROOT
