@<TRIPOS>MOLECULE
HRM
   28    30     1     0     0
SMALL
No Charge or Current Charge


@<TRIPOS>ATOM
      1 CAB          3.7890     2.0690    -0.0140 c3         1 HRM      -0.143400
      2 CAL          3.1630     0.6860    -0.0010 ca         1 HRM       0.340300
      3 NAH          4.0010    -0.3850     0.0130 nb         1 HRM      -0.658000
      4 CAC          3.4550    -1.6370     0.0250 ca         1 HRM       0.304900
      5 CAE          2.0630    -1.8860     0.0230 ca         1 HRM      -0.114000
      6 CAO          1.2070    -0.7720     0.0080 cp         1 HRM      -0.039000
      7 CAP          1.7710     0.4970    -0.0040 ca         1 HRM      -0.066200
      8 NAI          0.6890     1.3990    -0.0180 na         1 HRM      -0.225600
      9 CAM         -0.5430     0.7250    -0.0150 ca         1 HRM       0.040800
     10 CAG         -1.8500     1.2140    -0.0250 ca         1 HRM      -0.195000
     11 CAN         -0.2420    -0.6330     0.0010 cp         1 HRM      -0.135000
     12 CAF         -1.2770    -1.5850     0.0070 ca         1 HRM      -0.005000
     13 CAD         -2.6130    -1.1220    -0.0020 ca         1 HRM      -0.231000
     14 CAK         -2.9000     0.2730    -0.0190 ca         1 HRM       0.180100
     15 OAJ         -4.1910     0.7600    -0.0280 os         1 HRM      -0.344100
     16 CAA         -5.3390    -0.1080    -0.0230 c3         1 HRM       0.150900
     17 HAB1         3.4860     2.6240    -0.9090 hc         1 HRM       0.049367
     18 HAB2         3.4750     2.6450     0.8640 hc         1 HRM       0.049367
     19 HAB3         4.8850     2.0220    -0.0060 hc         1 HRM       0.049367
     20 HAC          4.1600    -2.4670     0.0360 h4         1 HRM       0.018100
     21 HAE          1.6770    -2.9010     0.0320 ha         1 HRM       0.124000
     22 HNAI         0.7830     2.4090    -0.0280 hn         1 HRM       0.357000
     23 HAG         -2.0550     2.2800    -0.0370 ha         1 HRM       0.132000
     24 HAF         -1.0540    -2.6500     0.0200 ha         1 HRM       0.117000
     25 HAD         -3.4100    -1.8590     0.0030 ha         1 HRM       0.119000
     26 HAA1        -5.3420    -0.7560    -0.9080 h1         1 HRM       0.042033
     27 HAA2        -5.3480    -0.7370     0.8760 h1         1 HRM       0.042033
     28 HAA3        -6.2620     0.4840    -0.0330 h1         1 HRM       0.042033
@<TRIPOS>BOND
     1     1     2 1   
     2     1    17 1   
     3     1    18 1   
     4     1    19 1   
     5     2     3 ar  
     6     2     7 ar  
     7     3     4 ar  
     8     4     5 ar  
     9     4    20 1   
    10     5     6 ar  
    11     5    21 1   
    12     6     7 ar  
    13     6    11 1   
    14     7     8 1   
    15     8     9 1   
    16     8    22 1   
    17     9    10 ar  
    18     9    11 ar  
    19    10    14 ar  
    20    10    23 1   
    21    11    12 ar  
    22    12    13 ar  
    23    12    24 1   
    24    13    14 ar  
    25    13    25 1   
    26    14    15 1   
    27    15    16 1   
    28    16    26 1   
    29    16    27 1   
    30    16    28 1   
@<TRIPOS>SUBSTRUCTURE
     1 HRM         1 TEMP              0 ****  ****    0 ROOT
