@<TRIPOS>MOLECULE
HRM
   28    30     1     0     0
SMALL
abcg2


@<TRIPOS>ATOM
      1 CAB          3.6570     2.0680    -0.0160 c3         1 HRM      -0.143400
      2 CAL          3.0950     0.6810    -0.0010 ca         1 HRM       0.340300
      3 NAH          3.9200    -0.3550     0.0120 nb         1 HRM      -0.658000
      4 CAC          3.4310    -1.6010     0.0250 ca         1 HRM       0.304900
      5 CAE          2.0840    -1.9100     0.0240 ca         1 HRM      -0.114000
      6 CAO          1.1910    -0.8420     0.0090 cp         1 HRM      -0.039000
      7 CAP          1.7170     0.4600    -0.0030 ca         1 HRM      -0.066200
      8 NAI          0.6810     1.3620    -0.0160 na         1 HRM      -0.225600
      9 CAM         -0.5070     0.6840    -0.0130 ca         1 HRM       0.040800
     10 CAG         -1.8020     1.1860    -0.0230 ca         1 HRM      -0.195000
     11 CAN         -0.2390    -0.7020     0.0020 cp         1 HRM      -0.135000
     12 CAF         -1.3050    -1.5950     0.0070 ca         1 HRM      -0.005000
     13 CAD         -2.6020    -1.1160    -0.0020 ca         1 HRM      -0.231000
     14 CAK         -2.8490     0.2700    -0.0170 ca         1 HRM       0.180100
     15 OAJ         -4.0860     0.8000    -0.0260 os         1 HRM      -0.344100
     16 CAA         -5.2060    -0.0640    -0.0240 c3         1 HRM       0.150900
     17 HAB1         3.3350     2.6160    -0.9040 hc         1 HRM       0.049367
     18 HAB2         3.3220     2.6410     0.8520 hc         1 HRM       0.049367
     19 HAB3         4.7450     2.0400    -0.0080 hc         1 HRM       0.049367
     20 HAC          4.1670    -2.3970     0.0360 h4         1 HRM       0.018100
     21 HAE          1.7530    -2.9400     0.0340 ha         1 HRM       0.124000
     22 HNAI         0.7760     2.3640    -0.0250 hn         1 HRM       0.357000
     23 HAG         -1.9990     2.2500    -0.0350 ha         1 HRM       0.132000
     24 HAF         -1.1310    -2.6640     0.0180 ha         1 HRM       0.117000
     25 HAD         -3.4170    -1.8250     0.0010 ha         1 HRM       0.119000
     26 HAA1        -5.2300    -0.7060    -0.9080 h1         1 HRM       0.042033
     27 HAA2        -5.2380    -0.6900     0.8710 h1         1 HRM       0.042033
     28 HAA3        -6.0860     0.5740    -0.0340 h1         1 HRM       0.042033
@<TRIPOS>BOND
     1     1     2 1   
     2     1    17 1   
     3     1    18 1   
     4     1    19 1   
     5     2     3 ar  
     6     2     7 ar  
     7     3     4 ar  
     8     4     5 ar  
     9     4    20 1   
    10     5     6 ar  
    11     5    21 1   
    12     6     7 ar  
    13     6    11 1   
    14     7     8 1   
    15     8     9 1   
    16     8    22 1   
    17     9    10 ar  
    18     9    11 ar  
    19    10    14 ar  
    20    10    23 1   
    21    11    12 ar  
    22    12    13 ar  
    23    12    24 1   
    24    13    14 ar  
    25    13    25 1   
    26    14    15 1   
    27    15    16 1   
    28    16    26 1   
    29    16    27 1   
    30    16    28 1   
@<TRIPOS>SUBSTRUCTURE
     1 HRM         1 TEMP              0 ****  ****    0 ROOT
