@<TRIPOS>MOLECULE
HRN
   92    99     1     0     0
SMALL
No Charge or Current Charge


@<TRIPOS>ATOM
      1 C2          -1.7950     0.3500     2.1130 ca         1 HRN       0.138000
      2 C3          -2.6900     0.6020     1.0430 ca         1 HRN      -0.086300
      3 C42          3.5300     5.7760     1.6570 ca         1 HRN      -0.096000
      4 C44          2.1720     5.8040     1.2700 ca         1 HRN      -0.113600
      5 C45          1.5750     4.6040     0.8180 ca         1 HRN      -0.089000
      6 C47          1.3670     7.0940     1.3480 c          1 HRN       0.710600
      7 C52          5.2450     1.7660     2.2570 c6         1 HRN       0.194300
      8 C55          5.1080     0.2390     2.4190 c6         1 HRN      -0.093900
      9 C58          5.4450    -0.5010     1.0940 c6         1 HRN       0.133700
     10 C60          4.7410     0.1010    -0.1540 c6         1 HRN      -0.093900
     11 C12         -2.6940     1.9460     0.2950 c3         1 HRN       0.133600
     12 C15         -3.7620     2.1650    -2.0220 cc         1 HRN       0.397400
     13 C18         -2.6150     0.7060    -3.1320 cd         1 HRN       0.294500
     14 C19         -1.9440     0.9030    -1.9400 cc         1 HRN      -0.082800
     15 C20         -0.9110     0.0710    -1.3660 cc         1 HRN      -0.029400
     16 C21          0.1850     0.5180    -0.6090 cd         1 HRN      -0.098300
     17 C24          0.1740    -1.7370    -0.5730 ca         1 HRN      -0.036200
     18 C25         -0.8780    -1.3640    -1.3570 ca         1 HRN      -0.104800
     19 C26         -1.7750    -2.3050    -1.8900 ca         1 HRN      -0.043000
     20 C28         -1.5330    -3.6700    -1.6380 ca         1 HRN      -0.147000
     21 C30         -0.4300    -4.0580    -0.8480 ca         1 HRN       0.137000
     22 Cl1         -0.7120     1.5970     2.7330 cl         1 HRN      -0.178000
     23 C4          -3.5510    -0.4370     0.6210 ca         1 HRN      -0.080000
     24 C6          -3.4880    -1.7070     1.2170 ca         1 HRN      -0.105000
     25 C8          -2.5720    -1.9510     2.2500 ca         1 HRN       0.134000
     26 C9          -1.7370    -0.9220     2.7050 ca         1 HRN      -0.100000
     27 Cl2         -2.4740    -3.5500     2.9750 cl         1 HRN      -0.199000
     28 N14         -2.7410     1.7560    -1.1830 na         1 HRN      -0.146500
     29 N17         -3.7140     1.5420    -3.1890 nd         1 HRN      -0.680000
     30 N22          0.8480    -0.6320    -0.0790 na         1 HRN      -0.200700
     31 C31          0.4310    -3.0890    -0.2980 ca         1 HRN      -0.112000
     32 Cl3         -0.1460    -5.7620    -0.5210 cl         1 HRN      -0.232000
     33 C34          0.6120     1.9590    -0.5080 c          1 HRN       0.620300
     34 O35          0.0720     2.8700    -1.1250 o          1 HRN      -0.559100
     35 N36          1.7050     2.1780     0.3180 ns         1 HRN      -0.137000
     36 C38          2.3130     3.3990     0.7420 ca         1 HRN      -0.056000
     37 C39          3.6680     3.3920     1.1460 ca         1 HRN       0.154000
     38 C40          4.2640     4.5820     1.5990 ca         1 HRN      -0.144000
     39 O48          1.9300     8.1150     1.7170 o          1 HRN      -0.713000
     40 O49          0.1830     7.0650     1.0400 o          1 HRN      -0.713000
     41 N51          4.4280     2.2050     1.1010 nh         1 HRN      -0.804400
     42 C63          4.8790     1.6380    -0.1930 c6         1 HRN       0.194300
     43 N66          5.2470    -1.9720     1.2030 n          1 HRN      -0.445800
     44 C67          6.5060    -2.7540     1.1560 c6         1 HRN       0.111000
     45 C70          6.3110    -4.1970     1.6270 c6         1 HRN      -0.135400
     46 C73          5.0290    -4.7360     0.9990 c6         1 HRN       0.172600
     47 O76          3.9180    -3.9220     1.4060 os         1 HRN      -0.434100
     48 C77          3.9640    -2.5490     1.3940 c          1 HRN       0.722100
     49 O78          2.9490    -1.8840     1.5410 o          1 HRN      -0.590000
     50 C79         -2.2070    -0.0930    -4.3190 ca         1 HRN      -0.084500
     51 C80         -3.1370    -0.3460    -5.3540 ca         1 HRN      -0.092500
     52 C82         -2.7670    -1.0750    -6.4970 ca         1 HRN      -0.121500
     53 C84         -1.4530    -1.5460    -6.6370 ca         1 HRN      -0.122000
     54 C86         -0.5080    -1.2740    -5.6380 ca         1 HRN      -0.121500
     55 C88         -0.8770    -0.5450    -4.4940 ca         1 HRN      -0.092500
     56 C90         -3.8190     2.8500     0.8490 c3         1 HRN      -0.101100
     57 H1           4.0200     6.6810     2.0110 ha         1 HRN       0.133000
     58 H2           0.5240     4.6150     0.5450 ha         1 HRN       0.164000
     59 H3           4.9070     2.2580     3.1820 h1         1 HRN       0.040950
     60 H4           6.3010     2.0330     2.1040 h1         1 HRN       0.040950
     61 H5           5.7680    -0.1100     3.2230 hc         1 HRN       0.053700
     62 H6           4.0830     0.0190     2.7400 hc         1 HRN       0.053700
     63 H7           6.5180    -0.3210     0.9290 h1         1 HRN       0.039700
     64 H8           5.1660    -0.3320    -1.0690 hc         1 HRN       0.053700
     65 H9           3.6760    -0.1500    -0.1610 hc         1 HRN       0.053700
     66 H10         -1.7620     2.4760     0.5060 h1         1 HRN       0.110700
     67 H11         -4.5320     2.8610    -1.7130 h5         1 HRN       0.051100
     68 H12         -2.6460    -2.0000    -2.4630 ha         1 HRN       0.126000
     69 H13         -2.2040    -4.4240    -2.0390 ha         1 HRN       0.120000
     70 H14         -4.2540    -0.2730    -0.1930 ha         1 HRN       0.125000
     71 H15         -4.1390    -2.5050     0.8690 ha         1 HRN       0.128000
     72 H16         -1.0360    -1.1130     3.5120 ha         1 HRN       0.144000
     73 H17          1.6630    -0.6690     0.5340 hn         1 HRN       0.386000
     74 H18          1.2590    -3.3920     0.3330 ha         1 HRN       0.151000
     75 H19          2.1400     1.3510     0.7010 hn         1 HRN       0.165000
     76 H20          5.3080     4.5850     1.9030 ha         1 HRN       0.087000
     77 H22          5.9280     1.9110    -0.3820 h1         1 HRN       0.040950
     78 H23          4.2790     2.0360    -1.0260 h1         1 HRN       0.040950
     79 H24          6.8720    -2.7590     0.1190 h1         1 HRN       0.047200
     80 H25          7.2750    -2.2710     1.7770 h1         1 HRN       0.047200
     81 H26          7.1740    -4.8140     1.3440 hc         1 HRN       0.065700
     82 H27          6.2310    -4.2310     2.7220 hc         1 HRN       0.065700
     83 H28          5.1080    -4.7140    -0.0980 h1         1 HRN       0.062200
     84 H29          4.8490    -5.7750     1.3110 h1         1 HRN       0.062200
     85 H30         -4.1620     0.0080    -5.2690 ha         1 HRN       0.124500
     86 H31         -3.5000    -1.2730    -7.2760 ha         1 HRN       0.101500
     87 H32         -1.1660    -2.1080    -7.5230 ha         1 HRN       0.099000
     88 H33          0.5170    -1.6190    -5.7520 ha         1 HRN       0.101500
     89 H34         -0.1110    -0.3210    -3.7590 ha         1 HRN       0.124500
     90 H35         -4.8050     2.4020     0.6800 hc         1 HRN       0.051033
     91 H36         -3.6930     2.9940     1.9280 hc         1 HRN       0.051033
     92 H37         -3.7940     3.8390     0.3740 hc         1 HRN       0.051033
@<TRIPOS>BOND
     1     1     2 ar  
     2     1    22 1   
     3     1    26 ar  
     4     2    11 1   
     5     2    23 ar  
     6     3     4 ar  
     7     3    38 ar  
     8     3    57 1   
     9     4     5 ar  
    10     4     6 1   
    11     5    36 ar  
    12     5    58 1   
    13     6    39 1   
    14     6    40 1   
    15     7     8 1   
    16     7    41 1   
    17     7    59 1   
    18     7    60 1   
    19     8     9 1   
    20     8    61 1   
    21     8    62 1   
    22     9    10 1   
    23     9    43 1   
    24     9    63 1   
    25    10    42 1   
    26    10    64 1   
    27    10    65 1   
    28    11    28 1   
    29    11    56 1   
    30    11    66 1   
    31    12    28 1   
    32    12    29 2   
    33    12    67 1   
    34    13    14 2   
    35    13    29 1   
    36    13    50 1   
    37    14    15 1   
    38    14    28 1   
    39    15    16 2   
    40    15    18 1   
    41    16    30 1   
    42    16    33 1   
    43    17    18 ar  
    44    17    30 1   
    45    17    31 ar  
    46    18    19 ar  
    47    19    20 ar  
    48    19    68 1   
    49    20    21 ar  
    50    20    69 1   
    51    21    31 ar  
    52    21    32 1   
    53    23    24 ar  
    54    23    70 1   
    55    24    25 ar  
    56    24    71 1   
    57    25    26 ar  
    58    25    27 1   
    59    26    72 1   
    60    30    73 1   
    61    31    74 1   
    62    33    34 2   
    63    33    35 1   
    64    35    36 1   
    65    35    75 1   
    66    36    37 ar  
    67    37    38 ar  
    68    37    41 1   
    69    38    76 1   
    70    41    42 1   
    71    42    77 1   
    72    42    78 1   
    73    43    44 1   
    74    43    48 1   
    75    44    45 1   
    76    44    79 1   
    77    44    80 1   
    78    45    46 1   
    79    45    81 1   
    80    45    82 1   
    81    46    47 1   
    82    46    83 1   
    83    46    84 1   
    84    47    48 1   
    85    48    49 2   
    86    50    51 ar  
    87    50    55 ar  
    88    51    52 ar  
    89    51    85 1   
    90    52    53 ar  
    91    52    86 1   
    92    53    54 ar  
    93    53    87 1   
    94    54    55 ar  
    95    54    88 1   
    96    55    89 1   
    97    56    90 1   
    98    56    91 1   
    99    56    92 1   
@<TRIPOS>SUBSTRUCTURE
     1 HRN         1 TEMP              0 ****  ****    0 ROOT
