@<TRIPOS>MOLECULE
HRN
   92    99     1     0     0
SMALL
bcc


@<TRIPOS>ATOM
      1 C2          -2.0550    -0.0430     2.1180 ca         1 HRN       0.046400
      2 C3          -2.9900     0.2720     1.1380 ca         1 HRN      -0.086300
      3 C42          3.7840     5.7200     0.9810 ca         1 HRN      -0.114000
      4 C44          2.4350     5.8190     0.6630 ca         1 HRN      -0.113600
      5 C45          1.7000     4.6570     0.4340 ca         1 HRN      -0.107000
      6 C47          1.7500     7.1780     0.5790 c          1 HRN       0.921200
      7 C52          5.1600     1.7410     1.9740 c6         1 HRN       0.194300
      8 C55          5.1310     0.2460     2.2490 c6         1 HRN      -0.093900
      9 C58          5.4200    -0.5560     0.9780 c6         1 HRN       0.133700
     10 C60          4.6600    -0.0700    -0.2580 c6         1 HRN      -0.093900
     11 C12         -3.0880     1.6370     0.4920 c3         1 HRN       0.104300
     12 C15         -3.9640     1.9640    -1.8520 cc         1 HRN       0.397400
     13 C18         -2.4860     0.9340    -2.9970 cd         1 HRN       0.359800
     14 C19         -2.0990     0.8280    -1.6810 cc         1 HRN      -0.097400
     15 C20         -1.0340     0.0650    -1.0450 cc         1 HRN      -0.029400
     16 C21          0.0650     0.5090    -0.3450 cd         1 HRN      -0.098300
     17 C24          0.0760    -1.7200    -0.1690 ca         1 HRN      -0.036200
     18 C25         -1.0260    -1.3590    -0.9620 ca         1 HRN      -0.104800
     19 C26         -1.8710    -2.3500    -1.4680 ca         1 HRN      -0.061000
     20 C28         -1.6150    -3.6660    -1.1590 ca         1 HRN      -0.165000
     21 C30         -0.5210    -3.9890    -0.3410 ca         1 HRN       0.045400
     22 CL1         -0.9800     1.1680     2.7400 cl         1 HRN      -0.086400
     23 C4          -3.8460    -0.7440     0.7250 ca         1 HRN      -0.098000
     24 C6          -3.7410    -2.0350     1.2090 ca         1 HRN      -0.123000
     25 C8          -2.7510    -2.3210     2.1340 ca         1 HRN       0.042400
     26 C9          -1.9130    -1.3310     2.6120 ca         1 HRN      -0.118000
     27 CL2         -2.5510    -3.9430     2.6980 cl         1 HRN      -0.107400
     28 N14         -3.0670     1.4900    -0.9610 na         1 HRN      -0.167900
     29 N17         -3.6490     1.6510    -3.0790 nd         1 HRN      -0.680000
     30 N22          0.7280    -0.5750     0.1820 na         1 HRN      -0.150400
     31 C31          0.3450    -3.0480     0.1670 ca         1 HRN      -0.130000
     32 CL3         -0.2550    -5.6600     0.0490 cl         1 HRN      -0.140400
     33 C34          0.4770     1.9260    -0.2530 c          1 HRN       0.687300
     34 O35         -0.2340     2.7910    -0.7410 o          1 HRN      -0.559100
     35 N36          1.6550     2.1820     0.3560 ns         1 HRN      -0.463100
     36 C38          2.3090     3.4100     0.5100 ca         1 HRN       0.036600
     37 C39          3.6800     3.3170     0.8180 ca         1 HRN       0.015600
     38 C40          4.3990     4.4790     1.0570 ca         1 HRN      -0.162000
     39 O48          2.4630     8.1750     0.7990 o          1 HRN      -0.818300
     40 O49          0.5360     7.1780     0.2980 o          1 HRN      -0.818300
     41 N51          4.2270     2.0220     0.8980 nh         1 HRN      -0.666000
     42 C63          4.6880     1.4460    -0.3610 c6         1 HRN       0.194300
     43 N66          5.2720    -1.9990     1.1830 n          1 HRN      -0.512800
     44 C67          6.5030    -2.7810     1.1050 c6         1 HRN       0.111000
     45 C70          6.2970    -4.1830     1.6320 c6         1 HRN      -0.135400
     46 C73          4.9950    -4.7030     1.0850 c6         1 HRN       0.149400
     47 O76          3.9250    -3.8480     1.4920 os         1 HRN      -0.410900
     48 C77          4.0580    -2.5200     1.4370 c          1 HRN       0.864600
     49 O78          3.0500    -1.8570     1.6320 o          1 HRN      -0.665500
     50 C79         -1.8450     0.3950    -4.1970 ca         1 HRN      -0.084500
     51 C80         -2.5850     0.2670    -5.3760 ca         1 HRN      -0.110500
     52 C82         -2.0060    -0.2430    -6.5280 ca         1 HRN      -0.139500
     53 C84         -0.6730    -0.6350    -6.5300 ca         1 HRN      -0.140000
     54 C86          0.0740    -0.5040    -5.3670 ca         1 HRN      -0.139500
     55 C88         -0.5030     0.0090    -4.2150 ca         1 HRN      -0.110500
     56 C90         -4.3220     2.3860     0.9740 c3         1 HRN      -0.101100
     57 H1           4.3590     6.6180     1.1630 ha         1 HRN       0.151000
     58 H2           0.6490     4.7460     0.2170 ha         1 HRN       0.182000
     59 H3           4.8540     2.2830     2.8690 h1         1 HRN       0.040950
     60 H4           6.1810     2.0690     1.7250 h1         1 HRN       0.040950
     61 H5           5.8760    -0.0060     3.0080 hc         1 HRN       0.053700
     62 H6           4.1500    -0.0050     2.6480 hc         1 HRN       0.053700
     63 H7           6.4800    -0.4100     0.7540 h1         1 HRN       0.039700
     64 H8           5.1080    -0.5110    -1.1510 hc         1 HRN       0.053700
     65 H9           3.6210    -0.3990    -0.2350 hc         1 HRN       0.053700
     66 H10         -2.2170     2.2330     0.7600 h1         1 HRN       0.110700
     67 H11         -4.8330     2.5330    -1.5610 h5         1 HRN       0.051100
     68 H12         -2.7230    -2.0890    -2.0830 ha         1 HRN       0.144000
     69 H13         -2.2580    -4.4510    -1.5320 ha         1 HRN       0.138000
     70 H14         -4.5920    -0.5360    -0.0340 ha         1 HRN       0.143000
     71 H15         -4.4010    -2.8090     0.8460 ha         1 HRN       0.146000
     72 H16         -1.1530    -1.5530     3.3480 ha         1 HRN       0.162000
     73 H17          1.5400    -0.5860     0.7850 hn         1 HRN       0.335700
     74 H18          1.1820    -3.3200     0.7930 ha         1 HRN       0.169000
     75 H19          2.2420     1.4250     0.6900 hn         1 HRN       0.331500
     76 H20          5.4530     4.4100     1.2990 ha         1 HRN       0.105000
     77 H22          5.7010     1.8030    -0.5990 h1         1 HRN       0.040950
     78 H23          4.0380     1.7730    -1.1750 h1         1 HRN       0.040950
     79 H24          6.8460    -2.8120     0.0670 h1         1 HRN       0.047200
     80 H25          7.2710    -2.2670     1.6860 h1         1 HRN       0.047200
     81 H26          7.1220    -4.8200     1.3140 hc         1 HRN       0.065700
     82 H27          6.2760    -4.1920     2.7240 hc         1 HRN       0.065700
     83 H28          5.0210    -4.7570    -0.0070 h1         1 HRN       0.062200
     84 H29          4.7470    -5.6910     1.4690 h1         1 HRN       0.062200
     85 H30         -3.6250     0.5670    -5.3860 ha         1 HRN       0.142500
     86 H31         -2.6010    -0.3360    -7.4280 ha         1 HRN       0.119500
     87 H32         -0.2220    -1.0330    -7.4300 ha         1 HRN       0.117000
     88 H33          1.1170    -0.7940    -5.3560 ha         1 HRN       0.119500
     89 H34          0.1070     0.1170    -3.3280 ha         1 HRN       0.142500
     90 H35         -5.2460     1.8670     0.7200 hc         1 HRN       0.051033
     91 H36         -4.2730     2.4700     2.0580 hc         1 HRN       0.051033
     92 H37         -4.3600     3.3970     0.5690 hc         1 HRN       0.051033
@<TRIPOS>BOND
     1     1     2 ar  
     2     1    22 1   
     3     1    26 ar  
     4     2    11 1   
     5     2    23 ar  
     6     3     4 ar  
     7     3    38 ar  
     8     3    57 1   
     9     4     5 ar  
    10     4     6 1   
    11     5    36 ar  
    12     5    58 1   
    13     6    39 1   
    14     6    40 1   
    15     7     8 1   
    16     7    41 1   
    17     7    59 1   
    18     7    60 1   
    19     8     9 1   
    20     8    61 1   
    21     8    62 1   
    22     9    10 1   
    23     9    43 1   
    24     9    63 1   
    25    10    42 1   
    26    10    64 1   
    27    10    65 1   
    28    11    28 1   
    29    11    56 1   
    30    11    66 1   
    31    12    28 1   
    32    12    29 2   
    33    12    67 1   
    34    13    14 2   
    35    13    29 1   
    36    13    50 1   
    37    14    15 1   
    38    14    28 1   
    39    15    16 2   
    40    15    18 1   
    41    16    30 1   
    42    16    33 1   
    43    17    18 ar  
    44    17    30 1   
    45    17    31 ar  
    46    18    19 ar  
    47    19    20 ar  
    48    19    68 1   
    49    20    21 ar  
    50    20    69 1   
    51    21    31 ar  
    52    21    32 1   
    53    23    24 ar  
    54    23    70 1   
    55    24    25 ar  
    56    24    71 1   
    57    25    26 ar  
    58    25    27 1   
    59    26    72 1   
    60    30    73 1   
    61    31    74 1   
    62    33    34 2   
    63    33    35 1   
    64    35    36 1   
    65    35    75 1   
    66    36    37 ar  
    67    37    38 ar  
    68    37    41 1   
    69    38    76 1   
    70    41    42 1   
    71    42    77 1   
    72    42    78 1   
    73    43    44 1   
    74    43    48 1   
    75    44    45 1   
    76    44    79 1   
    77    44    80 1   
    78    45    46 1   
    79    45    81 1   
    80    45    82 1   
    81    46    47 1   
    82    46    83 1   
    83    46    84 1   
    84    47    48 1   
    85    48    49 2   
    86    50    51 ar  
    87    50    55 ar  
    88    51    52 ar  
    89    51    85 1   
    90    52    53 ar  
    91    52    86 1   
    92    53    54 ar  
    93    53    87 1   
    94    54    55 ar  
    95    54    88 1   
    96    55    89 1   
    97    56    90 1   
    98    56    91 1   
    99    56    92 1   
@<TRIPOS>SUBSTRUCTURE
     1 HRN         1 TEMP              0 ****  ****    0 ROOT
