@<TRIPOS>MOLECULE
HRO
   14    14     1     0     0
SMALL
No Charge or Current Charge


@<TRIPOS>ATOM
      1 OAA          2.7000     0.8590    -0.0040 o          1 HRO      -0.675500
      2 CAH          1.6140     1.4220    -0.0050 c          1 HRO       0.722200
      3 OAD          1.5220     2.6450    -0.0070 o          1 HRO      -0.675500
      4 CAI          0.3250     0.6250    -0.0030 cc         1 HRO       0.030400
      5 CAJ          0.2040    -0.7610    -0.0010 cd         1 HRO      -0.126200
      6 Cl           1.5380    -1.8930     0.0010 cl         1 HRO      -0.147000
      7 CAL         -1.1550    -1.3790     0.0000 c          1 HRO       0.586200
      8 OAC         -1.3730    -2.5820     0.0030 o          1 HRO      -0.566000
      9 NAG         -2.1850    -0.4830    -0.0010 ns         1 HRO      -0.472500
     10 CAK         -2.1210     0.8710    -0.0040 c          1 HRO       0.608000
     11 OAB         -3.1070     1.5810    -0.0050 o          1 HRO      -0.603000
     12 NAF         -0.8580     1.3690    -0.0050 ns         1 HRO      -0.491600
     13 H3          -3.1120    -0.8780    -0.0010 hn         1 HRO       0.319500
     14 H2          -0.8000     2.3840    -0.0070 hn         1 HRO       0.492000
@<TRIPOS>BOND
     1     1     2 1   
     2     2     3 1   
     3     2     4 1   
     4     4     5 2   
     5     4    12 1   
     6     5     6 1   
     7     5     7 1   
     8     7     8 2   
     9     7     9 1   
    10     9    10 1   
    11     9    13 1   
    12    10    11 2   
    13    10    12 1   
    14    12    14 1   
@<TRIPOS>SUBSTRUCTURE
     1 HRO         1 TEMP              0 ****  ****    0 ROOT
