@<TRIPOS>MOLECULE
HRO
   14    14     1     0     0
SMALL
abcg2


@<TRIPOS>ATOM
      1 OAA          2.6640     0.8290    -0.0770 o          1 HRO      -0.675500
      2 CAH          1.5960     1.4370    -0.0080 c          1 HRO       0.722200
      3 OAD          1.3840     2.6610     0.0520 o          1 HRO      -0.675500
      4 CAI          0.3020     0.5900    -0.0020 cc         1 HRO       0.030400
      5 CAJ          0.1850    -0.7560     0.0060 cd         1 HRO      -0.126200
      6 CL           1.4960    -1.8610     0.0250 cl         1 HRO      -0.147000
      7 CAL         -1.1320    -1.3810     0.0060 c          1 HRO       0.586200
      8 OAC         -1.3330    -2.5780     0.0140 o          1 HRO      -0.566000
      9 NAG         -2.1810    -0.4840    -0.0060 ns         1 HRO      -0.472500
     10 CAK         -2.1040     0.8860    -0.0110 c          1 HRO       0.608000
     11 OAB         -3.0830     1.6040    -0.0170 o          1 HRO      -0.603000
     12 NAF         -0.8260     1.3540    -0.0080 ns         1 HRO      -0.491600
     13 H3          -3.1140    -0.8780    -0.0120 hn         1 HRO       0.319500
     14 H2          -0.6630     2.3560     0.0010 hn         1 HRO       0.492000
@<TRIPOS>BOND
     1     1     2 1   
     2     2     3 1   
     3     2     4 1   
     4     4     5 2   
     5     4    12 1   
     6     5     6 1   
     7     5     7 1   
     8     7     8 2   
     9     7     9 1   
    10     9    10 1   
    11     9    13 1   
    12    10    11 2   
    13    10    12 1   
    14    12    14 1   
@<TRIPOS>SUBSTRUCTURE
     1 HRO         1 TEMP              0 ****  ****    0 ROOT
