@<TRIPOS>MOLECULE
HRP
   27    28     1     0     0
SMALL
No Charge or Current Charge


@<TRIPOS>ATOM
      1 N           73.1620    -8.7980     6.9910 n8         1 HRP      -0.880800
      2 CA          71.7580    -8.8950     7.5500 c3         1 HRP       0.016500
      3 CB          71.7680    -9.0810     9.0920 c3         1 HRP       0.006800
      4 CG          72.3110    -7.9010     9.8630 cc         1 HRP      -0.084400
      5 CD1         71.5910    -6.8040    10.3290 cd         1 HRP      -0.134100
      6 NE1         72.4530    -5.9210    11.0200 na         1 HRP      -0.187400
      7 CE2         73.7060    -6.5020    10.9750 ca         1 HRP      -0.085200
      8 CZ2         74.8970    -6.0140    11.5300 ca         1 HRP      -0.132000
      9 CH2         76.0690    -6.7830    11.3670 ca         1 HRP      -0.146000
     10 CZ3         76.0290    -8.0080    10.6620 ca         1 HRP       0.079100
     11 CE3         74.8150    -8.4740    10.1140 ca         1 HRP      -0.142000
     12 CD2         73.6680    -7.6860    10.2910 ca         1 HRP      -0.041800
     13 C           70.8040    -9.9790     6.8880 c          1 HRP       0.901600
     14 O           71.1890   -11.1430     6.8210 o          1 HRP      -0.839800
     15 OXT         69.7600    -9.6040     6.3650 o          1 HRP      -0.839800
     16 OX          77.1720    -8.7370    10.5150 oh         1 HRP      -0.519100
     17 H           73.5970    -9.7250     7.0370 hn         1 HRP       0.323300
     18 H2          73.1120    -8.5970     5.9870 hn         1 HRP       0.323300
     19 HA          71.2830    -7.9230     7.3550 h1         1 HRP       0.038700
     20 HB2         72.3290    -9.9880     9.3470 hc         1 HRP       0.046700
     21 HB3         70.7380    -9.2640     9.4250 hc         1 HRP       0.046700
     22 HD1         70.5330    -6.5910    10.2190 h4         1 HRP       0.159000
     23 HE1         72.2010    -5.0440    11.4630 hn         1 HRP       0.283700
     24 HZ2         74.9180    -5.0710    12.0730 ha         1 HRP       0.117000
     25 HH2         77.0090    -6.4320    11.7860 ha         1 HRP       0.127000
     26 HE3         74.7640    -9.4120     9.5680 ha         1 HRP       0.145000
     27 HOX         76.9650    -9.5450    10.0000 ho         1 HRP       0.418000
@<TRIPOS>BOND
     1     1     2 1   
     2     1    17 1   
     3     1    18 1   
     4     2     3 1   
     5     2    13 1   
     6     2    19 1   
     7     3     4 1   
     8     3    20 1   
     9     3    21 1   
    10     4     5 2   
    11     4    12 1   
    12     5     6 1   
    13     5    22 1   
    14     6     7 1   
    15     6    23 1   
    16     7     8 ar  
    17     7    12 ar  
    18     8     9 ar  
    19     8    24 1   
    20     9    10 ar  
    21     9    25 1   
    22    10    11 ar  
    23    10    16 1   
    24    11    12 ar  
    25    11    26 1   
    26    13    14 1   
    27    13    15 1   
    28    16    27 1   
@<TRIPOS>SUBSTRUCTURE
     1 HRP         1 TEMP              0 ****  ****    0 ROOT
