@<TRIPOS>MOLECULE
HRP
   27    28     1     0     0
SMALL
bcc


@<TRIPOS>ATOM
      1 N           73.1090    -8.7680     7.0570 n8         1 HRP      -0.880800
      2 CA          71.7360    -8.8680     7.5270 c3         1 HRP       0.016500
      3 CB          71.7080    -9.0220     9.0560 c3         1 HRP       0.006800
      4 CG          72.3000    -7.8810     9.8200 cc         1 HRP      -0.084400
      5 CD1         71.6270    -6.7760    10.2680 cd         1 HRP      -0.134100
      6 NE1         72.4730    -5.9400    10.9390 na         1 HRP      -0.187400
      7 CE2         73.7240    -6.4900    10.9500 ca         1 HRP      -0.085200
      8 CZ2         74.9150    -6.0360    11.5120 ca         1 HRP      -0.132000
      9 CH2         76.0410    -6.8210    11.3740 ca         1 HRP      -0.146000
     10 CZ3         75.9900    -8.0470    10.6840 ca         1 HRP       0.079100
     11 CE3         74.8120    -8.4950    10.1190 ca         1 HRP      -0.142000
     12 CD2         73.6550    -7.7140    10.2510 ca         1 HRP      -0.041800
     13 C           70.8990   -10.0140     6.8980 c          1 HRP       0.901600
     14 O           71.5200   -10.9280     6.3190 o          1 HRP      -0.839800
     15 OXT         69.6620    -9.9320     7.0520 o          1 HRP      -0.839800
     16 OX          77.1550    -8.7430    10.6050 oh         1 HRP      -0.519100
     17 H           73.5140    -9.6970     7.0940 hn         1 HRP       0.323300
     18 H2          73.0960    -8.5410     6.0690 hn         1 HRP       0.323300
     19 HA          71.2370    -7.9220     7.2900 h1         1 HRP       0.038700
     20 HB2         72.2260    -9.9510     9.3240 hc         1 HRP       0.046700
     21 HB3         70.6690    -9.1550     9.3630 hc         1 HRP       0.046700
     22 HD1         70.5820    -6.5260    10.1610 h4         1 HRP       0.159000
     23 HE1         72.2110    -5.0670    11.3630 hn         1 HRP       0.283700
     24 HZ2         74.9630    -5.0950    12.0460 ha         1 HRP       0.117000
     25 HH2         76.9820    -6.4960    11.8010 ha         1 HRP       0.127000
     26 HE3         74.7790    -9.4360     9.5800 ha         1 HRP       0.145000
     27 HOX         77.0180    -9.5590    10.1110 ho         1 HRP       0.418000
@<TRIPOS>BOND
     1     1     2 1   
     2     1    17 1   
     3     1    18 1   
     4     2     3 1   
     5     2    13 1   
     6     2    19 1   
     7     3     4 1   
     8     3    20 1   
     9     3    21 1   
    10     4     5 2   
    11     4    12 1   
    12     5     6 1   
    13     5    22 1   
    14     6     7 1   
    15     6    23 1   
    16     7     8 ar  
    17     7    12 ar  
    18     8     9 ar  
    19     8    24 1   
    20     9    10 ar  
    21     9    25 1   
    22    10    11 ar  
    23    10    16 1   
    24    11    12 ar  
    25    11    26 1   
    26    13    14 1   
    27    13    15 1   
    28    16    27 1   
@<TRIPOS>SUBSTRUCTURE
     1 HRP         1 TEMP              0 ****  ****    0 ROOT
