@<TRIPOS>MOLECULE
HRQ
   49    52     1     0     0
SMALL
No Charge or Current Charge


@<TRIPOS>ATOM
      1 C1          -5.7490     2.0720    -0.1180 ca         1 HRQ      -0.100000
      2 C2          -6.5860     0.9300    -0.1100 ca         1 HRQ      -0.186000
      3 C3          -6.0210    -0.3700    -0.0980 ca         1 HRQ       0.129100
      4 C11         -8.2180    -1.4910    -0.0920 c3         1 HRQ       0.151900
      5 C15          1.2330     0.9400    -0.0680 c5         1 HRQ       0.092700
      6 C16          2.3270    -0.0650    -0.5330 c5         1 HRQ       0.218800
      7 C18          3.1190     1.3550     1.3250 c5         1 HRQ       0.233800
      8 C19          1.5920     1.1070     1.4290 c5         1 HRQ      -0.114400
      9 C20          4.8480     0.0310    -0.0400 ca         1 HRQ       0.349000
     10 C21          5.1230    -1.0570    -0.8920 ca         1 HRQ      -0.193500
     11 C22          6.4480    -1.4390    -1.1680 ca         1 HRQ      -0.062000
     12 C23          7.5220    -0.7370    -0.5940 ca         1 HRQ      -0.135300
     13 C24          7.2570     0.3520     0.2550 ca         1 HRQ      -0.062000
     14 C25          5.9310     0.7300     0.5290 ca         1 HRQ      -0.193500
     15 C26          8.9560    -1.1470    -0.8950 c3         1 HRQ      -0.033800
     16 C4          -4.3440     1.9320    -0.1160 ca         1 HRQ      -0.083000
     17 C5          -3.8150     0.6320    -0.1040 ca         1 HRQ      -0.022800
     18 C6          -4.6220    -0.4730    -0.0960 ca         1 HRQ      -0.089200
     19 N7          -3.8390    -1.6160    -0.0850 na         1 HRQ      -0.190700
     20 C8          -2.4710    -1.2730    -0.0870 cc         1 HRQ      -0.125100
     21 C9          -2.4560     0.1240    -0.0980 cd         1 HRQ      -0.226400
     22 O10         -6.7800    -1.5250    -0.0900 os         1 HRQ      -0.356100
     23 N13         -0.0550     0.2240    -0.0970 ns         1 HRQ      -0.504900
     24 O14         -1.2270     2.1880    -0.1140 o          1 HRQ      -0.605100
     25 N17          3.5110     0.4150     0.2370 nh         1 HRQ      -0.846400
     26 H1          -6.1900     3.0660    -0.1270 ha         1 HRQ       0.113000
     27 H2          -7.6630     1.0740    -0.1120 ha         1 HRQ       0.116000
     28 H3          -8.5970    -0.9670     0.7960 h1         1 HRQ       0.042033
     29 H4          -8.5950    -0.9820    -0.9880 h1         1 HRQ       0.042033
     30 H5          -8.6230    -2.5100    -0.0830 h1         1 HRQ       0.042033
     31 H6           1.2630     1.8830    -0.6330 h1         1 HRQ       0.096700
     32 H7           2.0810    -1.1010    -0.2600 h1         1 HRQ       0.044700
     33 H8           2.4790    -0.0130    -1.6200 h1         1 HRQ       0.044700
     34 H9           3.3370     2.3960     1.0450 h1         1 HRQ       0.045700
     35 H10          3.6240     1.1350     2.2760 h1         1 HRQ       0.045700
     36 H11          1.0640     1.9400     1.9070 hc         1 HRQ       0.059200
     37 H12          1.3840     0.2010     2.0110 hc         1 HRQ       0.059200
     38 H13          4.3140    -1.6220    -1.3440 ha         1 HRQ       0.108500
     39 H14          6.6370    -2.2830    -1.8290 ha         1 HRQ       0.105000
     40 H15          8.0780     0.9080     0.7020 ha         1 HRQ       0.105000
     41 H16          5.7570     1.5780     1.1830 ha         1 HRQ       0.108500
     42 H17          9.3350    -0.6190    -1.7780 hc         1 HRQ       0.035700
     43 H18          9.6220    -0.9170    -0.0550 hc         1 HRQ       0.035700
     44 H19          9.0320    -2.2230    -1.0890 hc         1 HRQ       0.035700
     45 H20         -3.7020     2.8080    -0.1220 ha         1 HRQ       0.143000
     46 H21         -4.2080    -2.5630    -0.0780 hn         1 HRQ       0.363000
     47 H22         -1.6800    -2.0180    -0.0790 h4         1 HRQ       0.210000
     48 H23         -0.1450    -0.7820    -0.0840 hn         1 HRQ       0.305500
     49 C12         -1.2210     0.9650    -0.1030 c          1 HRQ       0.651300
@<TRIPOS>BOND
     1     1     2 ar  
     2     1    16 ar  
     3     1    26 1   
     4     2     3 ar  
     5     2    27 1   
     6     3    18 ar  
     7     3    22 1   
     8     4    22 1   
     9     4    28 1   
    10     4    29 1   
    11     4    30 1   
    12     5     6 1   
    13     5     8 1   
    14     5    23 1   
    15     5    31 1   
    16     6    25 1   
    17     6    32 1   
    18     6    33 1   
    19     7     8 1   
    20     7    25 1   
    21     7    34 1   
    22     7    35 1   
    23     8    36 1   
    24     8    37 1   
    25     9    10 ar  
    26     9    14 ar  
    27     9    25 1   
    28    10    11 ar  
    29    10    38 1   
    30    11    12 ar  
    31    11    39 1   
    32    12    13 ar  
    33    12    15 1   
    34    13    14 ar  
    35    13    40 1   
    36    14    41 1   
    37    15    42 1   
    38    15    43 1   
    39    15    44 1   
    40    16    17 ar  
    41    16    45 1   
    42    17    18 ar  
    43    17    21 1   
    44    18    19 1   
    45    19    20 1   
    46    19    46 1   
    47    20    21 2   
    48    20    47 1   
    49    21    49 1   
    50    23    48 1   
    51    23    49 1   
    52    24    49 2   
@<TRIPOS>SUBSTRUCTURE
     1 HRQ         1 TEMP              0 ****  ****    0 ROOT
