@<TRIPOS>MOLECULE
HRQ
   49    52     1     0     0
SMALL
bcc


@<TRIPOS>ATOM
      1 C1          -5.6360     2.0120    -0.5510 ca         1 HRQ      -0.118000
      2 C2          -6.5090     0.9100    -0.4710 ca         1 HRQ      -0.204000
      3 C3          -6.0130    -0.3610    -0.2500 ca         1 HRQ       0.129100
      4 C11         -8.1350    -1.4050    -0.3000 c3         1 HRQ       0.128700
      5 C15          1.2420     0.7820     0.4280 c5         1 HRQ       0.092700
      6 C16          2.3150    -0.1670    -0.1070 c5         1 HRQ       0.218800
      7 C18          3.2720     1.2800     1.5720 c5         1 HRQ       0.233800
      8 C19          1.7740     1.1570     1.8110 c5         1 HRQ      -0.114400
      9 C20          4.7740     0.0040     0.0670 ca         1 HRQ       0.210600
     10 C21          4.9730    -0.9780    -0.9180 ca         1 HRQ      -0.211500
     11 C22          6.2470    -1.2860    -1.3690 ca         1 HRQ      -0.080000
     12 C23          7.3820    -0.6500    -0.8740 ca         1 HRQ      -0.135300
     13 C24          7.1820     0.3140     0.1120 ca         1 HRQ      -0.080000
     14 C25          5.9180     0.6420     0.5770 ca         1 HRQ      -0.211500
     15 C26          8.7550    -0.9720    -1.3930 c3         1 HRQ      -0.033800
     16 C4          -4.2720     1.8850    -0.4170 ca         1 HRQ      -0.101000
     17 C5          -3.7470     0.6010    -0.1930 ca         1 HRQ      -0.022800
     18 C6          -4.6250    -0.4910    -0.1130 ca         1 HRQ      -0.089200
     19 N7          -3.8810    -1.6190     0.1090 na         1 HRQ      -0.140400
     20 C8          -2.5750    -1.2890     0.1760 cc         1 HRQ      -0.075100
     21 C9          -2.4260     0.0690     0.0030 cd         1 HRQ      -0.226400
     22 O10         -6.7310    -1.4950    -0.1510 os         1 HRQ      -0.332900
     23 N13         -0.0710     0.1990     0.4120 ns         1 HRQ      -0.571900
     24 O14         -1.1540     1.9970    -0.4330 o          1 HRQ      -0.605100
     25 N17          3.5240     0.3180     0.5140 nh         1 HRQ      -0.708000
     26 H1          -6.0660     2.9900    -0.7270 ha         1 HRQ       0.131000
     27 H2          -7.5710     1.0780    -0.5840 ha         1 HRQ       0.134000
     28 H3          -8.5840    -0.7700     0.4680 h1         1 HRQ       0.042033
     29 H4          -8.4140    -1.0200    -1.2840 h1         1 HRQ       0.042033
     30 H5          -8.5230    -2.4150    -0.1930 h1         1 HRQ       0.042033
     31 H6           1.2190     1.6750    -0.1980 h1         1 HRQ       0.096700
     32 H7           2.0950    -1.2070     0.1720 h1         1 HRQ       0.044700
     33 H8           2.3720    -0.1300    -1.1980 h1         1 HRQ       0.044700
     34 H9           3.5410     2.2980     1.2640 h1         1 HRQ       0.045700
     35 H10          3.8500     1.0480     2.4700 h1         1 HRQ       0.045700
     36 H11          1.3310     2.0740     2.1970 hc         1 HRQ       0.059200
     37 H12          1.5650     0.3520     2.5210 hc         1 HRQ       0.059200
     38 H13          4.1300    -1.5200    -1.3280 ha         1 HRQ       0.126500
     39 H14          6.3530    -2.0520    -2.1290 ha         1 HRQ       0.123000
     40 H15          8.0360     0.8330     0.5320 ha         1 HRQ       0.123000
     41 H16          5.8280     1.4040     1.3400 ha         1 HRQ       0.126500
     42 H17          9.0490    -0.2990    -2.2020 hc         1 HRQ       0.035700
     43 H18          9.5110    -0.8810    -0.6130 hc         1 HRQ       0.035700
     44 H19          8.8050    -1.9870    -1.7870 hc         1 HRQ       0.035700
     45 H20         -3.6240     2.7450    -0.4880 ha         1 HRQ       0.161000
     46 H21         -4.2350    -2.5580     0.1870 hn         1 HRQ       0.312700
     47 H22         -1.8340    -2.0590     0.3270 h4         1 HRQ       0.160000
     48 H23         -0.1720    -0.7020     0.8520 hn         1 HRQ       0.305500
     49 C12         -1.1790     0.8400    -0.0250 c          1 HRQ       0.718300
@<TRIPOS>BOND
     1     1     2 ar  
     2     1    16 ar  
     3     1    26 1   
     4     2     3 ar  
     5     2    27 1   
     6     3    18 ar  
     7     3    22 1   
     8     4    22 1   
     9     4    28 1   
    10     4    29 1   
    11     4    30 1   
    12     5     6 1   
    13     5     8 1   
    14     5    23 1   
    15     5    31 1   
    16     6    25 1   
    17     6    32 1   
    18     6    33 1   
    19     7     8 1   
    20     7    25 1   
    21     7    34 1   
    22     7    35 1   
    23     8    36 1   
    24     8    37 1   
    25     9    10 ar  
    26     9    14 ar  
    27     9    25 1   
    28    10    11 ar  
    29    10    38 1   
    30    11    12 ar  
    31    11    39 1   
    32    12    13 ar  
    33    12    15 1   
    34    13    14 ar  
    35    13    40 1   
    36    14    41 1   
    37    15    42 1   
    38    15    43 1   
    39    15    44 1   
    40    16    17 ar  
    41    16    45 1   
    42    17    18 ar  
    43    17    21 1   
    44    18    19 1   
    45    19    20 1   
    46    19    46 1   
    47    20    21 2   
    48    20    47 1   
    49    21    49 1   
    50    23    48 1   
    51    23    49 1   
    52    24    49 2   
@<TRIPOS>SUBSTRUCTURE
     1 HRQ         1 TEMP              0 ****  ****    0 ROOT
