@<TRIPOS>MOLECULE
HRR
   37    39     1     0     0
SMALL
bcc


@<TRIPOS>ATOM
      1 C10         -6.7060    11.4740   -23.5850 ca         1 HRR       0.066300
      2 C13         -3.3920    10.1180   -24.6630 ca         1 HRR      -0.051300
      3 C15         -1.2270    11.0940   -24.1910 ca         1 HRR      -0.136000
      4 C17         -1.3770     9.0790   -25.4790 ca         1 HRR      -0.139000
      5 C20         -4.0750     6.8370   -25.2410 cx         1 HRR      -0.135400
      6 C21         -3.0520     6.6600   -26.3190 cx         1 HRR      -0.135400
      7 C22         -7.6540    11.0620   -24.5410 ca         1 HRR       0.254200
      8 C2         -10.8340    12.6680   -23.6230 c          1 HRR       0.830100
      9 C4          -9.3710    12.2390   -23.5860 ca         1 HRR       0.276800
     10 C5          -8.5150    12.6760   -22.5790 ca         1 HRR      -0.151300
     11 C6          -7.1810    12.3030   -22.5400 ca         1 HRR      -0.215600
     12 C7          -6.3010    12.7800   -21.3900 c          1 HRR       0.936200
     13 C12         -4.8980    10.1350   -24.5820 c3         1 HRR       0.281100
     14 C14         -2.6120    11.1150   -24.0860 ca         1 HRR      -0.100000
     15 C16         -0.6050    10.0720   -24.8880 ca         1 HRR      -0.159000
     16 C18         -2.7630     9.0800   -25.3730 ca         1 HRR      -0.069300
     17 C19         -3.5890     8.0260   -26.0260 cx         1 HRR      -0.062400
     18 N11         -5.3960    11.1170   -23.6630 nu         1 HRR      -0.807600
     19 N23         -8.9210    11.4300   -24.5430 nb         1 HRR      -0.635000
     20 O1         -11.1880    13.4830   -22.7450 o          1 HRR      -0.841800
     21 O3         -11.5460    12.1780   -24.5180 o          1 HRR      -0.841800
     22 O8          -6.7930    13.6040   -20.6050 o          1 HRR      -0.847300
     23 O9          -5.1450    12.2920   -21.3150 o          1 HRR      -0.847300
     24 H151        -0.6410    11.8790   -23.7300 ha         1 HRR       0.121000
     25 H171        -0.8870     8.2920   -26.0380 ha         1 HRR       0.108000
     26 H212        -3.3550     6.1870   -27.2440 hc         1 HRR       0.066200
     27 H211        -2.0410     6.4240   -26.0140 hc         1 HRR       0.066200
     28 H221        -7.3580    10.3950   -25.3450 h4         1 HRR      -0.036900
     29 H051        -8.8990    13.3200   -21.8010 ha         1 HRR       0.167000
     30 H122        -5.2800    10.3450   -25.5870 h1         1 HRR       0.026200
     31 H121        -5.2570     9.1250   -24.3400 h1         1 HRR       0.026200
     32 H141        -3.0810    11.9290   -23.5490 ha         1 HRR       0.181000
     33 H161         0.4730    10.0470   -24.9830 ha         1 HRR       0.106000
     34 H191        -4.3030     8.4080   -26.7510 hc         1 HRR       0.085700
     35 H111        -4.9090    11.2930   -22.7860 hn         1 HRR       0.483800
     36 H201        -5.0840     6.4880   -25.4150 hc         1 HRR       0.066200
     37 H202        -3.7420     6.7470   -24.2140 hc         1 HRR       0.066200
@<TRIPOS>BOND
     1     1     7 ar  
     2     1    11 ar  
     3     1    18 1   
     4     2    13 1   
     5     2    14 ar  
     6     2    16 ar  
     7     3    14 ar  
     8     3    15 ar  
     9     3    24 1   
    10     4    15 ar  
    11     4    16 ar  
    12     4    25 1   
    13     5     6 1   
    14     5    17 1   
    15     5    36 1   
    16     5    37 1   
    17     6    17 1   
    18     6    26 1   
    19     6    27 1   
    20     7    19 ar  
    21     7    28 1   
    22     8     9 1   
    23     8    20 1   
    24     8    21 1   
    25     9    10 ar  
    26     9    19 ar  
    27    10    11 ar  
    28    10    29 1   
    29    11    12 1   
    30    12    22 1   
    31    12    23 1   
    32    13    18 1   
    33    13    30 1   
    34    13    31 1   
    35    14    32 1   
    36    15    33 1   
    37    16    17 1   
    38    17    34 1   
    39    18    35 1   
@<TRIPOS>SUBSTRUCTURE
     1 HRR         1 TEMP              0 ****  ****    0 ROOT
