@<TRIPOS>MOLECULE
HRR
   37    39     1     0     0
SMALL
No Charge or Current Charge


@<TRIPOS>ATOM
      1 C10         -6.6190    11.5380   -23.9550 ca         1 HRR       0.270000
      2 C13         -3.1920    10.5480   -25.3170 ca         1 HRR      -0.051300
      3 C15         -0.8930    11.3310   -25.0150 ca         1 HRR      -0.118000
      4 C17         -1.3480     8.9510   -25.1790 ca         1 HRR      -0.121000
      5 C20         -4.7040     7.6980   -24.4300 cx         1 HRR      -0.135400
      6 C21         -3.5390     6.7710   -24.6700 cx         1 HRR      -0.135400
      7 C22         -7.5100    11.9110   -25.0000 ca         1 HRR       0.188900
      8 C2         -10.8500    12.3640   -23.3110 c          1 HRR       0.619500
      9 C4          -9.3430    12.0750   -23.5590 ca         1 HRR       0.211500
     10 C5          -8.5150    11.7130   -22.4660 ca         1 HRR      -0.068000
     11 C6          -7.1340    11.4360   -22.6420 ca         1 HRR      -0.215600
     12 C7          -6.2860    11.0680   -21.4400 c          1 HRR       0.725600
     13 C12         -4.6690    10.9050   -25.4910 c3         1 HRR       0.281100
     14 C14         -2.2630    11.5990   -25.1610 ca         1 HRR      -0.082000
     15 C16         -0.4350    10.0060   -25.0270 ca         1 HRR      -0.141000
     16 C18         -2.7290     9.2050   -25.3160 ca         1 HRR      -0.069300
     17 C19         -3.6730     8.0410   -25.4820 cx         1 HRR      -0.062400
     18 N11         -5.2660    11.2790   -24.2040 nu         1 HRR      -1.001200
     19 N23         -8.8260    12.1720   -24.8240 nb         1 HRR      -0.635000
     20 O1         -11.2950    12.2670   -22.1730 o          1 HRR      -0.736500
     21 O3         -11.5690    12.6840   -24.2540 o          1 HRR      -0.736500
     22 O8          -6.7260    11.3260   -20.3290 o          1 HRR      -0.742000
     23 O9          -5.2040    10.5200   -21.6050 o          1 HRR      -0.742000
     24 H151        -0.1870    12.1500   -24.8960 ha         1 HRR       0.103000
     25 H171        -0.9780     7.9280   -25.1930 ha         1 HRR       0.090000
     26 H212        -3.7360     5.8270   -25.1720 hc         1 HRR       0.066200
     27 H211        -2.7700     6.7270   -23.9030 hc         1 HRR       0.066200
     28 H221        -7.1590    12.0060   -26.0270 h4         1 HRR      -0.036900
     29 H051        -8.9550    11.6450   -21.4750 ha         1 HRR       0.149000
     30 H122        -4.7520    11.7450   -26.1940 h1         1 HRR       0.026200
     31 H121        -5.2220    10.0650   -25.9300 h1         1 HRR       0.026200
     32 H141        -2.6120    12.6300   -25.1530 ha         1 HRR       0.163000
     33 H161         0.6260     9.7950   -24.9200 ha         1 HRR       0.088000
     34 H191        -3.9790     7.9150   -26.5190 hc         1 HRR       0.085700
     35 H111        -4.7990    10.9000   -23.3650 hn         1 HRR       0.539000
     36 H201        -5.6870     7.3820   -24.7710 hc         1 HRR       0.066200
     37 H202        -4.7050     8.2790   -23.5110 hc         1 HRR       0.066200
@<TRIPOS>BOND
     1     1     7 ar  
     2     1    11 ar  
     3     1    18 1   
     4     2    13 1   
     5     2    14 ar  
     6     2    16 ar  
     7     3    14 ar  
     8     3    15 ar  
     9     3    24 1   
    10     4    15 ar  
    11     4    16 ar  
    12     4    25 1   
    13     5     6 1   
    14     5    17 1   
    15     5    36 1   
    16     5    37 1   
    17     6    17 1   
    18     6    26 1   
    19     6    27 1   
    20     7    19 ar  
    21     7    28 1   
    22     8     9 1   
    23     8    20 1   
    24     8    21 1   
    25     9    10 ar  
    26     9    19 ar  
    27    10    11 ar  
    28    10    29 1   
    29    11    12 1   
    30    12    22 1   
    31    12    23 1   
    32    13    18 1   
    33    13    30 1   
    34    13    31 1   
    35    14    32 1   
    36    15    33 1   
    37    16    17 1   
    38    17    34 1   
    39    18    35 1   
@<TRIPOS>SUBSTRUCTURE
     1 HRR         1 TEMP              0 ****  ****    0 ROOT
