@<TRIPOS>MOLECULE
HRS
   26    27     1     0     0
SMALL
No Charge or Current Charge


@<TRIPOS>ATOM
      1 CAB          0.7090     1.3430    -0.4470 cc         1 HRS      -0.493500
      2 CAC          0.5950     0.8230    -1.7150 cd         1 HRS       0.018000
      3 CAD          1.3040    -0.3970    -1.8760 cd         1 HRS      -0.121000
      4 CAE          1.9540    -0.7940    -0.7350 cc         1 HRS      -0.149900
      5 CAK         -2.0500     1.0640     0.8080 ca         1 HRS       0.287000
      6 CAL         -2.3570     0.1840     1.8570 ca         1 HRS      -0.130500
      7 CAM         -3.1160    -0.9770     1.6210 ca         1 HRS      -0.031500
      8 CAN         -3.5880    -1.2670     0.3200 ca         1 HRS      -0.186200
      9 CAO         -3.2910    -0.3700    -0.7320 ca         1 HRS      -0.031500
     10 CAP         -2.5320     0.7870    -0.4830 ca         1 HRS      -0.130500
     11 NAH         -1.2950     2.2000     1.0730 nu         1 HRS      -0.872100
     12 NAQ         -4.3950    -2.5030     0.0610 no         1 HRS       0.695200
     13 OAI          0.8390     3.4260     1.1800 o          1 HRS      -0.519000
     14 OAJ         -0.6570     3.5720    -0.9180 o          1 HRS      -0.519000
     15 OAR         -4.7880    -2.7140    -1.0940 o          1 HRS      -0.394500
     16 OAS         -4.6320    -3.2580     1.0130 o          1 HRS      -0.394500
     17 SAA          1.7140     0.3470     0.5850 ss         1 HRS       0.381000
     18 SAG         -0.0290     2.8210     0.1710 sy         1 HRS       1.195600
     19 Br           2.9960    -2.3520    -0.5300 br         1 HRS      -0.013100
     20 HAC          0.0200     1.2880    -2.5130 ha         1 HRS       0.156000
     21 HAD          1.3260    -0.9580    -2.8060 ha         1 HRS       0.156000
     22 HAL         -2.0010     0.3910     2.8620 ha         1 HRS       0.144500
     23 HAM         -3.3310    -1.6430     2.4550 ha         1 HRS       0.157500
     24 HAO         -3.6450    -0.5580    -1.7450 ha         1 HRS       0.157500
     25 HAP         -2.3260     1.4710    -1.2990 ha         1 HRS       0.144500
     26 HAH         -0.9900     2.3190     2.0280 hn         1 HRS       0.494000
@<TRIPOS>BOND
     1     1     2 2   
     2     1    17 1   
     3     1    18 1   
     4     2     3 1   
     5     2    20 1   
     6     3     4 2   
     7     3    21 1   
     8     4    17 1   
     9     4    19 1   
    10     5     6 ar  
    11     5    10 ar  
    12     5    11 1   
    13     6     7 ar  
    14     6    22 1   
    15     7     8 ar  
    16     7    23 1   
    17     8     9 ar  
    18     8    12 1   
    19     9    10 ar  
    20     9    24 1   
    21    10    25 1   
    22    11    18 1   
    23    11    26 1   
    24    12    15 1   
    25    12    16 1   
    26    13    18 2   
    27    14    18 2   
@<TRIPOS>SUBSTRUCTURE
     1 HRS         1 TEMP              0 ****  ****    0 ROOT
