@<TRIPOS>MOLECULE
HRS
   26    27     1     0     0
SMALL
bcc


@<TRIPOS>ATOM
      1 CAB          0.8520     1.2580    -0.4310 cc         1 HRS      -0.348600
      2 CAC          0.6090     0.2590    -1.3270 cd         1 HRS       0.000000
      3 CAD          1.5660    -0.7780    -1.2380 cd         1 HRS      -0.139000
      4 CAE          2.4920    -0.5260    -0.2690 cc         1 HRS      -0.005000
      5 CAK         -2.1160     1.0670     0.7040 ca         1 HRS       0.148600
      6 CAL         -1.9410    -0.1440     1.3670 ca         1 HRS      -0.148500
      7 CAM         -2.7750    -1.2130     1.0990 ca         1 HRS      -0.049500
      8 CAN         -3.7690    -1.0630     0.1430 ca         1 HRS      -0.186200
      9 CAO         -3.9530     0.1350    -0.5310 ca         1 HRS      -0.049500
     10 CAP         -3.1290     1.2060    -0.2420 ca         1 HRS      -0.148500
     11 NAH         -1.2730     2.1570     1.0050 nu         1 HRS      -0.678500
     12 NAQ         -4.6410    -2.1880    -0.1530 no         1 HRS       0.315200
     13 OAI          0.6540     3.6490     0.5360 o          1 HRS      -0.589800
     14 OAJ         -0.8760     2.9350    -1.3500 o          1 HRS      -0.589800
     15 OAR         -5.4850    -2.0430    -1.0050 o          1 HRS      -0.204500
     16 OAS         -4.4760    -3.2120     0.4670 o          1 HRS      -0.204500
     17 SAA          2.2360     0.9600     0.5440 ss         1 HRS       0.091200
     18 SAG         -0.1540     2.6500    -0.1300 sy         1 HRS       1.337200
     19 BR           3.9390    -1.5890     0.1880 br         1 HRS      -0.013100
     20 HAC         -0.2150     0.2580    -2.0260 ha         1 HRS       0.174000
     21 HAD          1.5670    -1.6590    -1.8620 ha         1 HRS       0.174000
     22 HAL         -1.1510    -0.2550     2.0980 ha         1 HRS       0.162500
     23 HAM         -2.6330    -2.1470     1.6220 ha         1 HRS       0.175500
     24 HAO         -4.7380     0.2520    -1.2640 ha         1 HRS       0.175500
     25 HAP         -3.2900     2.1520    -0.7380 ha         1 HRS       0.162500
     26 HAH         -0.8640     2.1250     1.9340 hn         1 HRS       0.438800
@<TRIPOS>BOND
     1     1     2 2   
     2     1    17 1   
     3     1    18 1   
     4     2     3 1   
     5     2    20 1   
     6     3     4 2   
     7     3    21 1   
     8     4    17 1   
     9     4    19 1   
    10     5     6 ar  
    11     5    10 ar  
    12     5    11 1   
    13     6     7 ar  
    14     6    22 1   
    15     7     8 ar  
    16     7    23 1   
    17     8     9 ar  
    18     8    12 1   
    19     9    10 ar  
    20     9    24 1   
    21    10    25 1   
    22    11    18 1   
    23    11    26 1   
    24    12    15 1   
    25    12    16 1   
    26    13    18 2   
    27    14    18 2   
@<TRIPOS>SUBSTRUCTURE
     1 HRS         1 TEMP              0 ****  ****    0 ROOT
