@<TRIPOS>MOLECULE
HRT
   65    69     1     0     0
SMALL
abcg2


@<TRIPOS>ATOM
      1 C1          17.8980     6.9040    -7.4130 ca         1 HRT      -0.303500
      2 C2          17.0120     6.4800    -8.3840 ca         1 HRT       0.199900
      3 C11         19.5340     5.6030    -1.9720 ca         1 HRT      -0.110300
      4 C12         19.1070     5.9920    -0.7090 ca         1 HRT      -0.080500
      5 C13         19.9410     6.7230     0.1300 ca         1 HRT      -0.104500
      6 C14         21.2110     7.0530    -0.3140 ca         1 HRT       0.131000
      7 C15         21.6590     6.6790    -1.5770 ca         1 HRT      -0.104500
      8 C16         20.8120     5.9570    -2.4000 ca         1 HRT      -0.080500
      9 C18         19.4610     3.1830    -4.4680 c          1 HRT       0.513500
     10 C20         18.6350     4.7650    -2.8570 c5         1 HRT       0.252300
     11 C21         18.4730     5.2660    -4.2540 cc         1 HRT      -0.198300
     12 C22         18.9410     4.3680    -5.1600 cd         1 HRT       0.173500
     13 C24         18.2680     6.0350    -6.2930 cc         1 HRT       0.481000
     14 C27         16.1120     7.1490    -3.6560 c3         1 HRT      -0.107600
     15 C28         18.2960     8.4380    -3.6420 c3         1 HRT      -0.107600
     16 C30         19.5750     2.5780    -1.9880 c3         1 HRT       0.185000
     17 N3          16.6730     7.2150    -9.4520 nb         1 HRT      -0.275000
     18 C4          17.2480     8.4070    -9.5340 ca         1 HRT       0.398300
     19 N5          18.1320     8.9270    -8.6750 nb         1 HRT      -0.285000
     20 C6          18.4590     8.1840    -7.6350 ca         1 HRT       0.399300
     21 O7          19.3540     8.6220    -6.7560 os         1 HRT      -0.455300
     22 C8          19.9280     9.9290    -6.9470 c3         1 HRT       0.157900
     23 O9          16.9600     9.2150   -10.5550 os         1 HRT      -0.438300
     24 C10         16.0220     8.7520   -11.5430 c3         1 HRT       0.164900
     25 CL1         22.2840     7.9520     0.7370 cl         1 HRT      -0.208000
     26 N19         19.2230     3.4270    -3.1310 n          1 HRT      -0.438800
     27 N23         18.0400     6.3490    -4.9580 na         1 HRT      -0.125500
     28 N25         18.8170     4.8370    -6.4400 nd         1 HRT      -0.587000
     29 O29         20.0030     2.1890    -4.9460 o          1 HRT      -0.523000
     30 C31         20.9980     2.8200    -1.5120 ca         1 HRT      -0.099300
     31 C32         21.2400     3.1610    -0.1850 ca         1 HRT      -0.103000
     32 C33         22.5320     3.4290     0.2530 ca         1 HRT      -0.104000
     33 C34         23.6030     3.3600    -0.6290 ca         1 HRT      -0.100000
     34 C35         23.3490     3.0060    -1.9470 ca         1 HRT       0.120000
     35 C36         22.0700     2.7310    -2.4000 ca         1 HRT      -0.084000
     36 CL2         24.6880     2.9190    -3.0800 cl         1 HRT      -0.214000
     37 C38         19.2820     1.0950    -2.2260 c3         1 HRT      -0.095100
     38 H1          16.5490     5.5040    -8.2980 h4         1 HRT       0.042100
     39 H2          18.1160     5.7180    -0.3680 ha         1 HRT       0.126000
     40 H3          19.6110     7.0210     1.1150 ha         1 HRT       0.134000
     41 H4          22.6550     6.9430    -1.9030 ha         1 HRT       0.134000
     42 H5          21.1580     5.6540    -3.3800 ha         1 HRT       0.126000
     43 H6          17.6730     4.6260    -2.3570 h1         1 HRT       0.072700
     44 H7          17.0340     8.0900    -5.3370 h1         1 HRT       0.070700
     45 H8          15.5580     8.0460    -3.3760 hc         1 HRT       0.051033
     46 H9          15.4610     6.5080    -4.2510 hc         1 HRT       0.051033
     47 H10         16.3810     6.6220    -2.7390 hc         1 HRT       0.051033
     48 H11         17.7940     9.3810    -3.4200 hc         1 HRT       0.051033
     49 H12         18.5680     7.9680    -2.6980 hc         1 HRT       0.051033
     50 H13         19.2040     8.6500    -4.2040 hc         1 HRT       0.051033
     51 H14         18.9140     2.9090    -1.1860 h1         1 HRT       0.045700
     52 H15         20.6000    10.0660    -6.1050 h1         1 HRT       0.056033
     53 H16         20.4770     9.9670    -7.8870 h1         1 HRT       0.056033
     54 H17         19.1490    10.6890    -6.9430 h1         1 HRT       0.056033
     55 H18         15.9490     9.5600   -12.2650 h1         1 HRT       0.054700
     56 H19         16.3880     7.8450   -12.0220 h1         1 HRT       0.054700
     57 H20         15.0510     8.5600   -11.0880 h1         1 HRT       0.054700
     58 H21         20.4090     3.2470     0.5030 ha         1 HRT       0.112000
     59 H22         22.7070     3.7110     1.2830 ha         1 HRT       0.118000
     60 H23         24.6100     3.5800    -0.3030 ha         1 HRT       0.129000
     61 H24         21.9010     2.4720    -3.4360 ha         1 HRT       0.153000
     62 H25         19.4100     0.5620    -1.2830 hc         1 HRT       0.053367
     63 H26         18.2540     0.9630    -2.5650 hc         1 HRT       0.053367
     64 H27         19.9530     0.6670    -2.9660 hc         1 HRT       0.053367
     65 C26         17.3520     7.5510    -4.4470 c3         1 HRT       0.091300
@<TRIPOS>BOND
     1     1     2 ar  
     2     1    13 1   
     3     1    20 ar  
     4     2    17 ar  
     5     2    38 1   
     6     3     4 ar  
     7     3     8 ar  
     8     3    10 1   
     9     4     5 ar  
    10     4    39 1   
    11     5     6 ar  
    12     5    40 1   
    13     6     7 ar  
    14     6    25 1   
    15     7     8 ar  
    16     7    41 1   
    17     8    42 1   
    18     9    12 1   
    19     9    26 1   
    20     9    29 2   
    21    10    11 1   
    22    10    26 1   
    23    10    43 1   
    24    11    12 2   
    25    11    27 1   
    26    12    28 1   
    27    13    27 1   
    28    13    28 2   
    29    14    45 1   
    30    14    46 1   
    31    14    47 1   
    32    14    65 1   
    33    15    48 1   
    34    15    49 1   
    35    15    50 1   
    36    15    65 1   
    37    16    26 1   
    38    16    30 1   
    39    16    37 1   
    40    16    51 1   
    41    17    18 ar  
    42    18    19 ar  
    43    18    23 1   
    44    19    20 ar  
    45    20    21 1   
    46    21    22 1   
    47    22    52 1   
    48    22    53 1   
    49    22    54 1   
    50    23    24 1   
    51    24    55 1   
    52    24    56 1   
    53    24    57 1   
    54    27    65 1   
    55    30    31 ar  
    56    30    35 ar  
    57    31    32 ar  
    58    31    58 1   
    59    32    33 ar  
    60    32    59 1   
    61    33    34 ar  
    62    33    60 1   
    63    34    35 ar  
    64    34    36 1   
    65    35    61 1   
    66    37    62 1   
    67    37    63 1   
    68    37    64 1   
    69    44    65 1   
@<TRIPOS>SUBSTRUCTURE
     1 HRT         1 TEMP              0 ****  ****    0 ROOT
