@<TRIPOS>MOLECULE
HRT
   65    69     1     0     0
SMALL
No Charge or Current Charge


@<TRIPOS>ATOM
      1 C1          18.1140     7.0370    -7.3310 ca         1 HRT      -0.303500
      2 C2          17.6380     6.4160    -8.4940 ca         1 HRT       0.199900
      3 C11         19.4710     5.8910    -1.9020 ca         1 HRT      -0.110300
      4 C12         19.0350     6.2190    -0.6000 ca         1 HRT      -0.080500
      5 C13         19.7790     7.0970     0.2060 ca         1 HRT      -0.104500
      6 C14         20.9720     7.6540    -0.2780 ca         1 HRT       0.131000
      7 C15         21.4240     7.3320    -1.5660 ca         1 HRT      -0.104500
      8 C16         20.6820     6.4530    -2.3730 ca         1 HRT      -0.080500
      9 C18         19.8700     3.4920    -4.2520 c          1 HRT       0.513500
     10 C20         18.6350     4.9160    -2.7410 c5         1 HRT       0.252300
     11 C21         18.6480     5.4420    -4.1420 cc         1 HRT      -0.198300
     12 C22         19.3070     4.6520    -4.9930 cd         1 HRT       0.173500
     13 C24         18.4900     6.2370    -6.1780 cc         1 HRT       0.481000
     14 C27         15.7000     6.6850    -3.9810 c3         1 HRT      -0.107600
     15 C28         17.5190     8.3490    -3.3040 c3         1 HRT      -0.107600
     16 C30         19.8350     2.7700    -1.8080 c3         1 HRT       0.185000
     17 N3          17.3190     7.1230    -9.5920 nb         1 HRT      -0.275000
     18 C4          17.5000     8.4610    -9.5430 ca         1 HRT       0.398300
     19 N5          17.9930     9.1310    -8.4860 nb         1 HRT      -0.285000
     20 C6          18.3120     8.4240    -7.3840 ca         1 HRT       0.399300
     21 O7          18.8810     9.0500    -6.2980 os         1 HRT      -0.455300
     22 C8          19.0860    10.4770    -6.2750 c3         1 HRT       0.157900
     23 O9          17.1820     9.2240   -10.6450 os         1 HRT      -0.438300
     24 C10         16.6450     8.6300   -11.8460 c3         1 HRT       0.164900
     25 Cl1         21.9040     8.7510     0.7320 cl         1 HRT      -0.208000
     26 N19         19.4420     3.6720    -2.9080 n          1 HRT      -0.438800
     27 N23         18.0310     6.4350    -4.8660 na         1 HRT      -0.125500
     28 N25         19.2270     5.1300    -6.2870 nd         1 HRT      -0.587000
     29 O29         20.5280     2.5570    -4.6950 o          1 HRT      -0.523000
     30 C31         21.3460     2.5240    -1.7130 ca         1 HRT      -0.099300
     31 C32         22.1560     3.4910    -1.0820 ca         1 HRT      -0.103000
     32 C33         23.5450     3.3080    -0.9770 ca         1 HRT      -0.104000
     33 C34         24.1420     2.1500    -1.5030 ca         1 HRT      -0.100000
     34 C35         23.3460     1.1810    -2.1320 ca         1 HRT       0.120000
     35 C36         21.9570     1.3620    -2.2370 ca         1 HRT      -0.084000
     36 Cl2         24.0930    -0.2680    -2.7950 cl         1 HRT      -0.214000
     37 C38         18.9610     1.5000    -1.7780 c3         1 HRT      -0.095100
     38 H1          17.4920     5.3380    -8.5480 h4         1 HRT       0.042100
     39 H2          18.1130     5.7910    -0.2110 ha         1 HRT       0.126000
     40 H3          19.4320     7.3450     1.2060 ha         1 HRT       0.134000
     41 H4          22.3520     7.7590    -1.9370 ha         1 HRT       0.134000
     42 H5          21.0580     6.2080    -3.3630 ha         1 HRT       0.126000
     43 H6          17.6250     4.7320    -2.3530 h1         1 HRT       0.072700
     44 H7          16.7380     8.0260    -5.2610 h1         1 HRT       0.070700
     45 H8          14.9190     7.4200    -3.7490 hc         1 HRT       0.051033
     46 H9          15.3320     6.0440    -4.7910 hc         1 HRT       0.051033
     47 H10         15.8570     6.0630    -3.0930 hc         1 HRT       0.051033
     48 H11         16.8180     9.1790    -3.1600 hc         1 HRT       0.051033
     49 H12         17.6220     7.8300    -2.3470 hc         1 HRT       0.051033
     50 H13         18.4940     8.7700    -3.5770 hc         1 HRT       0.051033
     51 H14         19.5750     3.3010    -0.8820 h1         1 HRT       0.045700
     52 H15         19.5420    10.7820    -5.3250 h1         1 HRT       0.056033
     53 H16         19.7530    10.7910    -7.0880 h1         1 HRT       0.056033
     54 H17         18.1320    11.0110    -6.3800 h1         1 HRT       0.056033
     55 H18         16.4570     9.4020   -12.6030 h1         1 HRT       0.054700
     56 H19         17.3470     7.9020   -12.2710 h1         1 HRT       0.054700
     57 H20         15.6950     8.1190   -11.6400 h1         1 HRT       0.054700
     58 H21         21.7060     4.3900    -0.6670 ha         1 HRT       0.112000
     59 H22         24.1580     4.0620    -0.4880 ha         1 HRT       0.118000
     60 H23         25.2160     2.0050    -1.4240 ha         1 HRT       0.129000
     61 H24         21.3680     0.6010    -2.7400 ha         1 HRT       0.153000
     62 H25         19.2400     0.8600    -0.9320 hc         1 HRT       0.053367
     63 H26         17.9040     1.7700    -1.6660 hc         1 HRT       0.053367
     64 H27         19.0650     0.9240    -2.7040 hc         1 HRT       0.053367
     65 C26         17.0030     7.3960    -4.4030 c3         1 HRT       0.091300
@<TRIPOS>BOND
     1     1     2 ar  
     2     1    13 1   
     3     1    20 ar  
     4     2    17 ar  
     5     2    38 1   
     6     3     4 ar  
     7     3     8 ar  
     8     3    10 1   
     9     4     5 ar  
    10     4    39 1   
    11     5     6 ar  
    12     5    40 1   
    13     6     7 ar  
    14     6    25 1   
    15     7     8 ar  
    16     7    41 1   
    17     8    42 1   
    18     9    12 1   
    19     9    26 1   
    20     9    29 2   
    21    10    11 1   
    22    10    26 1   
    23    10    43 1   
    24    11    12 2   
    25    11    27 1   
    26    12    28 1   
    27    13    27 1   
    28    13    28 2   
    29    14    45 1   
    30    14    46 1   
    31    14    47 1   
    32    14    65 1   
    33    15    48 1   
    34    15    49 1   
    35    15    50 1   
    36    15    65 1   
    37    16    26 1   
    38    16    30 1   
    39    16    37 1   
    40    16    51 1   
    41    17    18 ar  
    42    18    19 ar  
    43    18    23 1   
    44    19    20 ar  
    45    20    21 1   
    46    21    22 1   
    47    22    52 1   
    48    22    53 1   
    49    22    54 1   
    50    23    24 1   
    51    24    55 1   
    52    24    56 1   
    53    24    57 1   
    54    27    65 1   
    55    30    31 ar  
    56    30    35 ar  
    57    31    32 ar  
    58    31    58 1   
    59    32    33 ar  
    60    32    59 1   
    61    33    34 ar  
    62    33    60 1   
    63    34    35 ar  
    64    34    36 1   
    65    35    61 1   
    66    37    62 1   
    67    37    63 1   
    68    37    64 1   
    69    44    65 1   
@<TRIPOS>SUBSTRUCTURE
     1 HRT         1 TEMP              0 ****  ****    0 ROOT
