@<TRIPOS>MOLECULE
HRV
   44    46     1     0     0
SMALL
bcc


@<TRIPOS>ATOM
      1 C1           2.7140     2.4480     0.5400 c3         1 HRV      -0.083100
      2 C10          3.1880     0.5380    -2.1050 c3         1 HRV       0.682900
      3 C14          2.2630    -0.0470     0.6970 ca         1 HRV      -0.088300
      4 C15          0.9070     0.2260     0.5630 ca         1 HRV      -0.144000
      5 C16         -0.0860    -0.7370     0.7470 ca         1 HRV       0.056600
      6 C18         -2.5310    -1.0470     0.5040 c          1 HRV       0.586600
      7 C2           3.3150     1.0390     0.4690 c6         1 HRV       0.215500
      8 C20         -3.7570    -0.2060     0.2580 ca         1 HRV       0.368800
      9 C22         -4.5360     1.9520    -0.0110 ca         1 HRV       0.423200
     10 C23         -5.8400     1.5020    -0.1800 ca         1 HRV      -0.076900
     11 C25         -6.0990     0.1490    -0.1280 ca         1 HRV      -0.098000
     12 C26         -5.0410    -0.7250     0.0950 ca         1 HRV      -0.034900
     13 C28          0.2840    -2.0340     1.0910 ca         1 HRV      -0.114000
     14 C29          1.6300    -2.3280     1.2370 ca         1 HRV      -0.152000
     15 C30          2.5890    -1.3580     1.0380 ca         1 HRV       0.144900
     16 C4           5.4660     0.6180     1.3820 c2         1 HRV       0.610200
     17 C6           6.0130     0.1210     0.0700 c6         1 HRV       0.042100
     18 C8           4.0430     0.8740    -0.8910 c6         1 HRV       0.042100
     19 F11          2.1500     1.3680    -2.2470 f          1 HRV      -0.228967
     20 F12          3.9180     0.6340    -3.2250 f          1 HRV      -0.228967
     21 F13          2.7020    -0.7040    -2.0710 f          1 HRV      -0.228967
     22 F31          3.8690    -1.7360     1.1960 f          1 HRV      -0.138900
     23 N17         -1.4050    -0.3070     0.5790 ns         1 HRV      -0.454100
     24 N21         -3.5520     1.1060     0.1980 nb         1 HRV      -0.678000
     25 N3           4.2670     0.9990     1.5690 n2         1 HRV      -0.686900
     26 N5           6.3560     0.5990     2.4060 nv         1 HRV      -0.918800
     27 O19         -2.5830    -2.2560     0.6160 o          1 HRV      -0.562100
     28 O7           4.9880    -0.1550    -0.8420 os         1 HRV      -0.364600
     29 CL24        -7.1090     2.6250    -0.4520 cl         1 HRV      -0.067400
     30 CL27        -5.4230    -2.3990     0.1450 cl         1 HRV      -0.035400
     31 H1           2.2410     2.6000     1.5100 hc         1 HRV       0.048700
     32 H2           3.5210     3.1740     0.4440 hc         1 HRV       0.048700
     33 H3           1.9840     2.6660    -0.2360 hc         1 HRV       0.048700
     34 H4           0.5940     1.2280     0.3050 ha         1 HRV       0.135000
     35 H5          -4.2960     3.0070    -0.0460 h4         1 HRV       0.043100
     36 H6          -7.1030    -0.2310    -0.2600 ha         1 HRV       0.171000
     37 H7          -0.4440    -2.8110     1.2500 ha         1 HRV       0.168000
     38 H8           1.9370    -3.3300     1.5070 ha         1 HRV       0.152000
     39 H9           6.7140     0.8670    -0.3330 h1         1 HRV       0.068700
     40 H10          6.5710    -0.8040     0.2240 h1         1 HRV       0.068700
     41 H11          4.5310     1.8380    -1.1130 h1         1 HRV       0.067700
     42 H12         -1.5410     0.6870     0.4480 hn         1 HRV       0.348500
     43 H13          7.3390     0.5540     2.1920 hn         1 HRV       0.420300
     44 H14          6.1290     1.1460     3.2210 hn         1 HRV       0.420300
@<TRIPOS>BOND
     1     1     7 1   
     2     1    31 1   
     3     1    32 1   
     4     1    33 1   
     5     2    18 1   
     6     2    19 1   
     7     2    20 1   
     8     2    21 1   
     9     3     4 ar  
    10     3     7 1   
    11     3    15 ar  
    12     4     5 ar  
    13     4    34 1   
    14     5    13 ar  
    15     5    23 1   
    16     6     8 1   
    17     6    23 1   
    18     6    27 2   
    19     7    18 1   
    20     7    25 1   
    21     8    12 ar  
    22     8    24 ar  
    23     9    10 ar  
    24     9    24 ar  
    25     9    35 1   
    26    10    11 ar  
    27    10    29 1   
    28    11    12 ar  
    29    11    36 1   
    30    12    30 1   
    31    13    14 ar  
    32    13    37 1   
    33    14    15 ar  
    34    14    38 1   
    35    15    22 1   
    36    16    17 1   
    37    16    25 2   
    38    16    26 1   
    39    17    28 1   
    40    17    39 1   
    41    17    40 1   
    42    18    28 1   
    43    18    41 1   
    44    23    42 1   
    45    26    43 1   
    46    26    44 1   
@<TRIPOS>SUBSTRUCTURE
     1 HRV         1 TEMP              0 ****  ****    0 ROOT
