@<TRIPOS>MOLECULE
HRV
   44    46     1     0     0
SMALL
No Charge or Current Charge


@<TRIPOS>ATOM
      1 C1           2.7950     2.4270     0.4970 c3         1 HRV      -0.083100
      2 C10          3.3210     0.4240    -2.1990 c3         1 HRV       0.319000
      3 C14          2.2940    -0.1230     0.6190 ca         1 HRV      -0.088300
      4 C15          0.9110     0.1790     0.4880 ca         1 HRV      -0.126000
      5 C16         -0.0870    -0.8050     0.6340 ca         1 HRV      -0.036000
      6 C18         -2.6560    -1.0700     0.5070 c          1 HRV       0.519600
      7 C2           3.3930     0.9810     0.4320 c6         1 HRV       0.215500
      8 C20         -3.8780    -0.1580     0.2970 ca         1 HRV       0.303500
      9 C22         -4.6700     2.0290    -0.0830 ca         1 HRV       0.357900
     10 C23         -6.0090     1.6010    -0.0970 ca         1 HRV       0.080000
     11 C25         -6.2850     0.2410     0.0940 ca         1 HRV      -0.080000
     12 C26         -5.2190    -0.6560     0.2930 ca         1 HRV       0.122000
     13 C28          0.2930    -2.1310     0.9200 ca         1 HRV      -0.096000
     14 C29          1.6500    -2.4560     1.0480 ca         1 HRV      -0.134000
     15 C30          2.6400    -1.4730     0.8980 ca         1 HRV       0.180000
     16 C4           5.5210     0.6440     1.5140 c2         1 HRV       0.610200
     17 C6           6.2210     0.2500     0.2010 c6         1 HRV       0.065300
     18 C8           4.1780     0.8280    -0.9440 c6         1 HRV       0.065300
     19 F11          2.2240     1.1980    -2.3520 f          1 HRV      -0.107667
     20 F12          4.0460     0.5530    -3.3350 f          1 HRV      -0.107667
     21 F13          2.9000    -0.8620    -2.1510 f          1 HRV      -0.107667
     22 F31          3.9260    -1.8680     1.0200 f          1 HRV      -0.174000
     23 N17         -1.4400    -0.3880     0.4820 ns         1 HRV      -0.128000
     24 N21         -3.6270     1.1820     0.1080 nb         1 HRV      -0.678000
     25 N3           4.2900     0.9720     1.6250 n2         1 HRV      -0.686900
     26 N5           6.3130     0.6730     2.6250 nv         1 HRV      -1.029200
     27 O19         -2.7230    -2.2850     0.6790 o          1 HRV      -0.562100
     28 O7           5.2700    -0.1180    -0.8260 os         1 HRV      -0.411000
     29 Cl24        -7.3220     2.7490    -0.3490 cl         1 HRV      -0.159000
     30 Cl27        -5.6510    -2.3560     0.5280 cl         1 HRV      -0.127000
     31 H1           2.2200     2.5830     1.4170 hc         1 HRV       0.048700
     32 H2           3.5890     3.1850     0.4830 hc         1 HRV       0.048700
     33 H3           2.1370     2.6570    -0.3470 hc         1 HRV       0.048700
     34 H4           0.5800     1.1870     0.2590 ha         1 HRV       0.117000
     35 H5          -4.4220     3.0790    -0.2280 h4         1 HRV       0.043100
     36 H6          -7.3120    -0.1160     0.0880 ha         1 HRV       0.153000
     37 H7          -0.4400    -2.9220     1.0470 ha         1 HRV       0.150000
     38 H8           1.9420    -3.4810     1.2620 ha         1 HRV       0.134000
     39 H9           6.8210     1.0980    -0.1570 h1         1 HRV       0.068700
     40 H10          6.8980    -0.5980     0.3740 h1         1 HRV       0.068700
     41 H11          4.6290     1.8020    -1.1830 h1         1 HRV       0.067700
     42 H12         -1.5490     0.6070     0.3230 hn         1 HRV       0.182000
     43 H13          7.2820     0.9200     2.4500 hn         1 HRV       0.475500
     44 H14          5.8830     1.1670     3.3980 hn         1 HRV       0.475500
@<TRIPOS>BOND
     1     1     7 1   
     2     1    31 1   
     3     1    32 1   
     4     1    33 1   
     5     2    18 1   
     6     2    19 1   
     7     2    20 1   
     8     2    21 1   
     9     3     4 ar  
    10     3     7 1   
    11     3    15 ar  
    12     4     5 ar  
    13     4    34 1   
    14     5    13 ar  
    15     5    23 1   
    16     6     8 1   
    17     6    23 1   
    18     6    27 2   
    19     7    18 1   
    20     7    25 1   
    21     8    12 ar  
    22     8    24 ar  
    23     9    10 ar  
    24     9    24 ar  
    25     9    35 1   
    26    10    11 ar  
    27    10    29 1   
    28    11    12 ar  
    29    11    36 1   
    30    12    30 1   
    31    13    14 ar  
    32    13    37 1   
    33    14    15 ar  
    34    14    38 1   
    35    15    22 1   
    36    16    17 1   
    37    16    25 2   
    38    16    26 1   
    39    17    28 1   
    40    17    39 1   
    41    17    40 1   
    42    18    28 1   
    43    18    41 1   
    44    23    42 1   
    45    26    43 1   
    46    26    44 1   
@<TRIPOS>SUBSTRUCTURE
     1 HRV         1 TEMP              0 ****  ****    0 ROOT
