@<TRIPOS>MOLECULE
HRW
   46    48     1     0     0
SMALL
No Charge or Current Charge


@<TRIPOS>ATOM
      1 F2          55.4260    57.7480     2.7600 f          1 HRW      -0.112667
      2 C17         55.2150    57.0320     3.8890 c3         1 HRW       0.344300
      3 F           54.0970    56.3000     3.6880 f          1 HRW      -0.112667
      4 F1          56.2450    56.1610     3.9920 f          1 HRW      -0.112667
      5 C15         55.0860    57.9120     5.1370 ca         1 HRW      -0.191300
      6 C14         54.8020    59.2920     5.0360 ca         1 HRW      -0.059000
      7 C13         54.6710    60.0750     6.1960 ca         1 HRW      -0.114000
      8 C12         54.8170    59.4910     7.4640 ca         1 HRW      -0.073000
      9 C16         55.2260    57.3360     6.4170 ca         1 HRW      -0.061000
     10 C11         55.0960    58.1170     7.5810 ca         1 HRW      -0.092300
     11 C10         55.2260    57.4700     8.9550 c3         1 HRW       0.051100
     12 C9          53.9390    56.8580     9.4450 cc         1 HRW      -0.136600
     13 C8          52.7220    56.8230     8.7880 cd         1 HRW      -0.016000
     14 N3          51.7790    56.1590     9.5710 na         1 HRW      -0.727200
     15 S1          53.8780    56.0900    11.0320 ss         1 HRW      -0.026800
     16 C7          52.1970    55.6750    10.7600 cc         1 HRW       0.676100
     17 N2          51.4050    55.0490    11.5570 nf         1 HRW      -0.761100
     18 C6          52.0070    54.2130    12.5080 c          1 HRW       0.717500
     19 O           52.4760    54.6690    13.5400 o          1 HRW      -0.592100
     20 C5          51.9590    52.7100    12.1860 c3         1 HRW      -0.022400
     21 S           53.6440    51.9240    12.0750 ss         1 HRW      -0.272300
     22 C4          54.3700    52.6620    10.6190 ca         1 HRW       0.244300
     23 N           53.5720    52.8380     9.5430 nb         1 HRW      -0.189500
     24 C3          54.1320    53.3950     8.4500 ca         1 HRW       0.140800
     25 C18         53.2410    53.6060     7.2410 c3         1 HRW      -0.148900
     26 C2          55.4870    53.7630     8.4350 ca         1 HRW      -0.233000
     27 N1          55.6760    52.9910    10.6980 nb         1 HRW      -0.189500
     28 C1          56.2350    53.5430     9.6030 ca         1 HRW       0.140800
     29 C           57.7000    53.9280     9.6950 c3         1 HRW      -0.148900
     30 H14         54.6760    59.7650     4.0640 ha         1 HRW       0.134000
     31 H16         55.4300    56.2710     6.5090 ha         1 HRW       0.131000
     32 H13         54.4520    61.1370     6.1100 ha         1 HRW       0.125000
     33 H12         54.7050    60.1050     8.3560 ha         1 HRW       0.124000
     34 H101        56.0050    56.6990     8.9280 hc         1 HRW       0.067700
     35 H102        55.5730    58.2110     9.6850 hc         1 HRW       0.067700
     36 H8          52.4790    57.2320     7.8050 h4         1 HRW       0.236000
     37 H3          50.8120    56.0200     9.2970 hn         1 HRW       0.531000
     38 H51C        51.3850    52.2270    12.9850 h1         1 HRW       0.097200
     39 H52C        51.4180    52.5650    11.2440 h1         1 HRW       0.097200
     40 H181        52.1870    53.7020     7.5290 hc         1 HRW       0.056200
     41 H182        53.5180    54.5180     6.7000 hc         1 HRW       0.056200
     42 H183        53.3250    52.7630     6.5450 hc         1 HRW       0.056200
     43 H2          55.9410    54.2020     7.5520 ha         1 HRW       0.129000
     44 HC1         58.2870    53.1430    10.1860 hc         1 HRW       0.056200
     45 HC2         58.1330    54.0940     8.7020 hc         1 HRW       0.056200
     46 HC3         57.8230    54.8520    10.2720 hc         1 HRW       0.056200
@<TRIPOS>BOND
     1     1     2 1   
     2     2     3 1   
     3     2     4 1   
     4     2     5 1   
     5     5     6 ar  
     6     5     9 ar  
     7     6     7 ar  
     8     6    30 1   
     9     7     8 ar  
    10     7    32 1   
    11     8    10 ar  
    12     8    33 1   
    13     9    10 ar  
    14     9    31 1   
    15    10    11 1   
    16    11    12 1   
    17    11    34 1   
    18    11    35 1   
    19    12    13 2   
    20    12    15 1   
    21    13    14 1   
    22    13    36 1   
    23    14    16 1   
    24    14    37 1   
    25    15    16 1   
    26    16    17 2   
    27    17    18 1   
    28    18    19 2   
    29    18    20 1   
    30    20    21 1   
    31    20    38 1   
    32    20    39 1   
    33    21    22 1   
    34    22    23 ar  
    35    22    27 ar  
    36    23    24 ar  
    37    24    25 1   
    38    24    26 ar  
    39    25    40 1   
    40    25    41 1   
    41    25    42 1   
    42    26    28 ar  
    43    26    43 1   
    44    27    28 ar  
    45    28    29 1   
    46    29    44 1   
    47    29    45 1   
    48    29    46 1   
@<TRIPOS>SUBSTRUCTURE
     1 HRW         1 TEMP              0 ****  ****    0 ROOT
