@<TRIPOS>MOLECULE
HRW
   46    48     1     0     0
SMALL
abcg2


@<TRIPOS>ATOM
      1 F2          52.9980    60.1330     1.5610 f          1 HRW      -0.112667
      2 C17         53.4670    59.2400     2.4550 c3         1 HRW       0.344300
      3 F           52.6810    58.1360     2.3430 f          1 HRW      -0.112667
      4 F1          54.6940    58.8650     2.0270 f          1 HRW      -0.112667
      5 C15         53.4850    59.7720     3.8580 ca         1 HRW      -0.191300
      6 C14         52.7530    60.9060     4.1890 ca         1 HRW      -0.059000
      7 C13         52.7520    61.3520     5.5060 ca         1 HRW      -0.114000
      8 C12         53.4630    60.6620     6.4780 ca         1 HRW      -0.073000
      9 C16         54.2060    59.0820     4.8320 ca         1 HRW      -0.061000
     10 C11         54.1970    59.5200     6.1510 ca         1 HRW      -0.092300
     11 C10         54.9230    58.7500     7.2250 c3         1 HRW       0.051100
     12 C9          54.0320    57.7360     7.8860 cc         1 HRW      -0.136600
     13 C8          52.8530    57.2500     7.4600 cd         1 HRW      -0.016000
     14 N3          52.3100    56.3090     8.3140 na         1 HRW      -0.727200
     15 S1          54.4730    57.0080     9.4250 ss         1 HRW      -0.026800
     16 C7          53.0140    56.0300     9.4270 cc         1 HRW       0.676100
     17 N2          52.5980    55.1510    10.3130 nf         1 HRW      -0.761100
     18 C6          53.3510    54.9670    11.4290 c          1 HRW       0.717500
     19 O           54.3920    55.5740    11.6960 o          1 HRW      -0.592100
     20 C5          52.7330    53.9600    12.3880 c3         1 HRW      -0.022400
     21 S           53.8910    53.1280    13.4950 ss         1 HRW      -0.272300
     22 C4          54.8950    52.2250    12.3570 ca         1 HRW       0.244300
     23 N           54.6570    52.3240    11.0560 nb         1 HRW      -0.189500
     24 C3          55.4690    51.6350    10.2390 ca         1 HRW       0.140800
     25 C18         55.2140    51.7580     8.7700 c3         1 HRW      -0.148900
     26 C2          56.4960    50.8530    10.7540 ca         1 HRW      -0.233000
     27 N1          55.8520    51.5050    12.9450 nb         1 HRW      -0.189500
     28 C1          56.6600    50.8070    12.1370 ca         1 HRW       0.140800
     29 C           57.7350    49.9910    12.7840 c3         1 HRW      -0.148900
     30 H14         52.1970    61.4400     3.4310 ha         1 HRW       0.134000
     31 H16         54.7730    58.1990     4.5640 ha         1 HRW       0.131000
     32 H13         52.1930    62.2400     5.7720 ha         1 HRW       0.125000
     33 H12         53.4530    61.0100     7.5030 ha         1 HRW       0.124000
     34 H101        55.7940    58.2430     6.8010 hc         1 HRW       0.067700
     35 H102        55.3010    59.4410     7.9820 hc         1 HRW       0.067700
     36 H8          52.3190    57.5060     6.5600 h4         1 HRW       0.236000
     37 H3          51.4280    55.8470     8.1370 hn         1 HRW       0.531000
     38 H51C        52.0540    54.4950    13.0580 h1         1 HRW       0.097200
     39 H52C        52.1500    53.2290    11.8340 h1         1 HRW       0.097200
     40 H181        54.2120    51.3900     8.5350 hc         1 HRW       0.056200
     41 H182        55.2520    52.8090     8.4750 hc         1 HRW       0.056200
     42 H183        55.9430    51.1950     8.1900 hc         1 HRW       0.056200
     43 H2          57.1520    50.2970    10.1000 ha         1 HRW       0.129000
     44 HC1         57.2920    49.2860    13.4910 hc         1 HRW       0.056200
     45 HC2         58.3150    49.4390    12.0470 hc         1 HRW       0.056200
     46 HC3         58.4050    50.6410    13.3510 hc         1 HRW       0.056200
@<TRIPOS>BOND
     1     1     2 1   
     2     2     3 1   
     3     2     4 1   
     4     2     5 1   
     5     5     6 ar  
     6     5     9 ar  
     7     6     7 ar  
     8     6    30 1   
     9     7     8 ar  
    10     7    32 1   
    11     8    10 ar  
    12     8    33 1   
    13     9    10 ar  
    14     9    31 1   
    15    10    11 1   
    16    11    12 1   
    17    11    34 1   
    18    11    35 1   
    19    12    13 2   
    20    12    15 1   
    21    13    14 1   
    22    13    36 1   
    23    14    16 1   
    24    14    37 1   
    25    15    16 1   
    26    16    17 2   
    27    17    18 1   
    28    18    19 2   
    29    18    20 1   
    30    20    21 1   
    31    20    38 1   
    32    20    39 1   
    33    21    22 1   
    34    22    23 ar  
    35    22    27 ar  
    36    23    24 ar  
    37    24    25 1   
    38    24    26 ar  
    39    25    40 1   
    40    25    41 1   
    41    25    42 1   
    42    26    28 ar  
    43    26    43 1   
    44    27    28 ar  
    45    28    29 1   
    46    29    44 1   
    47    29    45 1   
    48    29    46 1   
@<TRIPOS>SUBSTRUCTURE
     1 HRW         1 TEMP              0 ****  ****    0 ROOT
