@<TRIPOS>MOLECULE
HRX
   27    27     1     0     0
SMALL
No Charge or Current Charge


@<TRIPOS>ATOM
      1 O17         -2.0310    -2.5190     0.5480 o          1 HRX      -0.947333
      2 P14         -2.1710    -1.2880    -0.2910 p5         1 HRX       1.340000
      3 O16         -1.6730    -1.6360    -1.6570 o          1 HRX      -0.947333
      4 O15         -3.6230    -0.9470    -0.3280 o          1 HRX      -0.947333
      5 C8          -1.0710    -0.0350     0.5720 c3         1 HRX      -0.403000
      6 P9          -1.7510     1.5570    -0.1660 p5         1 HRX       1.340000
      7 O11         -1.8820     1.5260    -1.6530 o          1 HRX      -0.947333
      8 O12         -3.0520     1.9330     0.4690 o          1 HRX      -0.947333
      9 O10         -0.8000     2.6570     0.1810 o          1 HRX      -0.947333
     10 O13         -1.1160    -0.1960     2.0570 oh         1 HRX      -0.726000
     11 C7           0.4010    -0.3000     0.0980 c3         1 HRX       0.000600
     12 C9           1.5390     0.4160     0.8770 c3         1 HRX      -0.076100
     13 C6           2.9160     0.0830     0.3150 ca         1 HRX      -0.034300
     14 C5           3.4550     0.8200    -0.7550 ca         1 HRX      -0.092000
     15 C2           4.7300     0.4700    -1.2320 ca         1 HRX      -0.191000
     16 C3           5.4200    -0.5970    -0.6310 ca         1 HRX       0.200900
     17 N4           4.9150    -1.3140     0.3950 nb         1 HRX      -0.719000
     18 C1           3.6830    -0.9740     0.8540 ca         1 HRX       0.271900
     19 H5          -1.4610    -1.1100     2.2080 ho         1 HRX       0.438000
     20 H6           0.6010    -1.3770     0.1590 hc         1 HRX       0.014200
     21 H7           0.4910    -0.0370    -0.9640 hc         1 HRX       0.014200
     22 H8           1.3880     1.4990     0.8540 hc         1 HRX       0.081700
     23 H9           1.4970     0.1280     1.9340 hc         1 HRX       0.081700
     24 H10          2.9000     1.6410    -1.2040 ha         1 HRX       0.135000
     25 H11          5.1800     1.0160    -2.0570 ha         1 HRX       0.061000
     26 H12          6.4090    -0.8890    -0.9800 h4         1 HRX      -0.056900
     27 H13          3.3000    -1.5710     1.6820 h4         1 HRX       0.005100
@<TRIPOS>BOND
     1     1     2 1   
     2     2     3 1   
     3     2     4 1   
     4     2     5 1   
     5     5     6 1   
     6     5    10 1   
     7     5    11 1   
     8     6     7 1   
     9     6     8 1   
    10     6     9 1   
    11    10    19 1   
    12    11    12 1   
    13    11    20 1   
    14    11    21 1   
    15    12    13 1   
    16    12    22 1   
    17    12    23 1   
    18    13    14 ar  
    19    13    18 ar  
    20    14    15 ar  
    21    14    24 1   
    22    15    16 ar  
    23    15    25 1   
    24    16    17 ar  
    25    16    26 1   
    26    17    18 ar  
    27    18    27 1   
@<TRIPOS>SUBSTRUCTURE
     1 HRX         1 TEMP              0 ****  ****    0 ROOT
