@<TRIPOS>MOLECULE
HRX
   27    27     1     0     0
SMALL
abcg2


@<TRIPOS>ATOM
      1 O17         -1.8600    -2.4890     0.8120 o          1 HRX      -0.947333
      2 P14         -2.0940    -1.4250    -0.3130 p5         1 HRX       1.340000
      3 O16         -1.4800    -1.8520    -1.6520 o          1 HRX      -0.947333
      4 O15         -3.5660    -1.0270    -0.4160 o          1 HRX      -0.947333
      5 C8          -1.0590    -0.0270     0.4280 c3         1 HRX      -0.403000
      6 P9          -1.6550     1.6920     0.0230 p5         1 HRX       1.340000
      7 O11         -1.7420     1.7300    -1.5120 o          1 HRX      -0.947333
      8 O12         -2.9980     1.8890     0.7400 o          1 HRX      -0.947333
      9 O10         -0.5950     2.6820     0.5650 o          1 HRX      -0.947333
     10 O13         -1.1440    -0.2400     1.8470 oh         1 HRX      -0.726000
     11 C7           0.3930    -0.2610    -0.0190 c3         1 HRX       0.000600
     12 C9           1.4640     0.4740     0.7940 c3         1 HRX      -0.076100
     13 C6           2.8370     0.1340     0.3060 ca         1 HRX      -0.034300
     14 C5           3.4020     0.7610    -0.8010 ca         1 HRX      -0.092000
     15 C2           4.6600     0.3790    -1.2420 ca         1 HRX      -0.191000
     16 C3           5.3230    -0.6310    -0.5600 ca         1 HRX       0.200900
     17 N4           4.8060    -1.2450     0.4980 nb         1 HRX      -0.719000
     18 C1           3.6000    -0.8650     0.9070 ca         1 HRX       0.271900
     19 H5          -1.3420    -1.2050     1.8680 ho         1 HRX       0.438000
     20 H6           0.6200    -1.3340     0.0310 hc         1 HRX       0.014200
     21 H7           0.4880     0.0150    -1.0720 hc         1 HRX       0.014200
     22 H8           1.2720     1.5440     0.7210 hc         1 HRX       0.081700
     23 H9           1.3690     0.1930     1.8450 hc         1 HRX       0.081700
     24 H10          2.8580     1.5460    -1.3130 ha         1 HRX       0.135000
     25 H11          5.1230     0.8540    -2.0970 ha         1 HRX       0.061000
     26 H12          6.3080    -0.9530    -0.8780 h4         1 HRX      -0.056900
     27 H13          3.2040    -1.3850     1.7750 h4         1 HRX       0.005100
@<TRIPOS>BOND
     1     1     2 1   
     2     2     3 1   
     3     2     4 1   
     4     2     5 1   
     5     5     6 1   
     6     5    10 1   
     7     5    11 1   
     8     6     7 1   
     9     6     8 1   
    10     6     9 1   
    11    10    19 1   
    12    11    12 1   
    13    11    20 1   
    14    11    21 1   
    15    12    13 1   
    16    12    22 1   
    17    12    23 1   
    18    13    14 ar  
    19    13    18 ar  
    20    14    15 ar  
    21    14    24 1   
    22    15    16 ar  
    23    15    25 1   
    24    16    17 ar  
    25    16    26 1   
    26    17    18 ar  
    27    18    27 1   
@<TRIPOS>SUBSTRUCTURE
     1 HRX         1 TEMP              0 ****  ****    0 ROOT
