@<TRIPOS>MOLECULE
HRY
   72    76     1     0     0
SMALL
No Charge or Current Charge


@<TRIPOS>ATOM
      1 N1           1.7130    -1.3430     1.1530 nb         1 HRY      -0.297000
      2 N2           1.1590     0.8280     0.3160 nb         1 HRY      -0.344000
      3 C1          -5.8810    -2.8990    -0.5250 cc         1 HRY      -0.321200
      4 C2          -4.6020    -2.4050    -0.3760 cd         1 HRY      -0.081000
      5 C3          -3.6600    -3.1000     0.4780 cd         1 HRY      -0.136200
      6 C4          -4.1160    -4.2720     1.0730 cc         1 HRY      -0.022400
      7 C6          -2.2540    -2.6360     0.6530 ca         1 HRY      -0.065800
      8 C7          -1.2590    -3.4960     1.1720 ca         1 HRY      -0.070000
      9 C8           0.0650    -3.0580     1.3350 ca         1 HRY      -0.118000
     10 C           -6.3700    -4.1160     0.1220 c          1 HRY       0.546200
     11 N           -5.4160    -4.7700     0.9200 n          1 HRY      -0.265000
     12 C20         -1.8690    -1.3170     0.3090 ca         1 HRY      -0.047000
     13 C19         -0.5350    -0.8740     0.4750 ca         1 HRY      -0.218000
     14 C9           0.4410    -1.7510     0.9910 ca         1 HRY       0.105000
     15 C10          2.0210    -0.0770     0.8090 ca         1 HRY       0.441900
     16 N4           3.3680     0.3410     0.9890 nh         1 HRY      -0.768300
     17 C21          3.8650     1.6370     0.3960 c6         1 HRY       0.187300
     18 C22          5.1860     2.1670     1.0490 c6         1 HRY       0.155300
     19 N5           6.2680     1.1400     1.1210 n3         1 HRY      -0.726600
     20 C23          6.8340     0.7940    -0.2180 c3         1 HRY       0.168800
     21 C24          8.0800    -0.1410    -0.1920 c3         1 HRY       0.163800
     22 N6           8.7550    -0.3500    -1.5060 n3         1 HRY      -0.717600
     23 C25         10.0430    -1.0640    -1.3610 c3         1 HRY       0.150600
     24 C26          7.8850    -0.9790    -2.5280 c3         1 HRY       0.150600
     25 C27          5.7470    -0.0280     1.8980 c6         1 HRY       0.155300
     26 C28          4.4580    -0.6610     1.2780 c6         1 HRY       0.187300
     27 C11         -0.1100     0.4330     0.1490 ca         1 HRY       0.436900
     28 N3          -0.9780     1.3910    -0.3670 nu         1 HRY      -0.927100
     29 C12         -0.6580     2.7700    -0.7570 c3         1 HRY       0.277100
     30 C13         -1.9180     3.4570    -1.2640 ca         1 HRY      -0.112300
     31 C18         -2.7800     4.1140    -0.3630 ca         1 HRY      -0.090000
     32 C17         -3.9460     4.7440    -0.8320 ca         1 HRY       0.116000
     33 Cl          -5.0160     5.5610     0.3000 cl         1 HRY      -0.197000
     34 C14         -2.2380     3.4340    -2.6370 ca         1 HRY      -0.092000
     35 C15         -3.4050     4.0650    -3.1040 ca         1 HRY      -0.105000
     36 C16         -4.2600     4.7210    -2.2010 ca         1 HRY      -0.092000
     37 H1          -6.6070    -2.3990    -1.1560 ha         1 HRY       0.209000
     38 H2          -4.3260    -1.5080    -0.9220 ha         1 HRY       0.185000
     39 H3          -3.5320    -4.9010     1.7330 h4         1 HRY       0.201000
     40 H4          -6.6620    -5.8030     2.2880 h1         1 HRY       0.055700
     41 H5          -6.1570    -6.7550     0.8620 h1         1 HRY       0.055700
     42 H6          -5.0000    -6.4420     2.1830 h1         1 HRY       0.055700
     43 H7          -1.4820    -4.5250     1.4350 ha         1 HRY       0.110000
     44 H8           0.8100    -3.7440     1.7300 ha         1 HRY       0.131000
     45 H9          -2.6120    -0.6220    -0.0610 ha         1 HRY       0.103000
     46 H10          4.0310     1.5070    -0.6840 h1         1 HRY       0.058950
     47 H11          3.1140     2.4320     0.5080 h1         1 HRY       0.058950
     48 H12          5.5280     3.0520     0.4910 h1         1 HRY       0.059950
     49 H13          4.9430     2.5180     2.0630 h1         1 HRY       0.059950
     50 H15          6.0610     0.3280    -0.8430 h1         1 HRY       0.038700
     51 H16          7.1350     1.7200    -0.7250 h1         1 HRY       0.038700
     52 H17          8.7980     0.2970     0.5140 h1         1 HRY       0.037200
     53 H18          7.7820    -1.1140     0.2200 h1         1 HRY       0.037200
     54 H20          9.8860    -2.0820    -0.9810 h1         1 HRY       0.029700
     55 H21         10.5600    -1.1330    -2.3280 h1         1 HRY       0.029700
     56 H22         10.7050    -0.5340    -0.6630 h1         1 HRY       0.029700
     57 H23          7.0020    -0.3610    -2.7340 h1         1 HRY       0.029700
     58 H24          8.4280    -1.1040    -3.4740 h1         1 HRY       0.029700
     59 H25          7.5450    -1.9700    -2.1960 h1         1 HRY       0.029700
     60 H26          6.5130    -0.8080     2.0060 h1         1 HRY       0.059950
     61 H27          5.5020     0.2950     2.9210 h1         1 HRY       0.059950
     62 H28          4.1080    -1.4260     1.9870 h1         1 HRY       0.058950
     63 H29          4.7310    -1.1870     0.3510 h1         1 HRY       0.058950
     64 H30         -1.9400     1.0920    -0.5030 hn         1 HRY       0.502000
     65 H31         -0.2570     3.3280     0.1020 h1         1 HRY       0.064200
     66 H32          0.1080     2.7780    -1.5450 h1         1 HRY       0.064200
     67 H33         -2.5490     4.1350     0.6990 ha         1 HRY       0.132000
     68 H34         -1.5840     2.9250    -3.3420 ha         1 HRY       0.124000
     69 H35         -3.6470     4.0450    -4.1650 ha         1 HRY       0.122000
     70 H36         -5.1620     5.2090    -2.5590 ha         1 HRY       0.133000
     71 C5          -5.8300    -6.0170     1.6050 c3         1 HRY       0.075300
     72 O           -7.5140    -4.5250    -0.0280 o          1 HRY      -0.559000
@<TRIPOS>BOND
     1     1    14 ar  
     2     1    15 ar  
     3     2    15 ar  
     4     2    27 ar  
     5     3     4 2   
     6     3    10 1   
     7     3    37 1   
     8     4     5 1   
     9     4    38 1   
    10     5     6 2   
    11     5     7 1   
    12     6    11 1   
    13     6    39 1   
    14     7     8 ar  
    15     7    12 ar  
    16     8     9 ar  
    17     8    43 1   
    18     9    14 ar  
    19     9    44 1   
    20    10    11 1   
    21    10    72 2   
    22    11    71 1   
    23    12    13 ar  
    24    12    45 1   
    25    13    14 ar  
    26    13    27 ar  
    27    15    16 1   
    28    16    17 1   
    29    16    26 1   
    30    17    18 1   
    31    17    46 1   
    32    17    47 1   
    33    18    19 1   
    34    18    48 1   
    35    18    49 1   
    36    19    20 1   
    37    19    25 1   
    38    20    21 1   
    39    20    50 1   
    40    20    51 1   
    41    21    22 1   
    42    21    52 1   
    43    21    53 1   
    44    22    23 1   
    45    22    24 1   
    46    23    54 1   
    47    23    55 1   
    48    23    56 1   
    49    24    57 1   
    50    24    58 1   
    51    24    59 1   
    52    25    26 1   
    53    25    60 1   
    54    25    61 1   
    55    26    62 1   
    56    26    63 1   
    57    27    28 1   
    58    28    29 1   
    59    28    64 1   
    60    29    30 1   
    61    29    65 1   
    62    29    66 1   
    63    30    31 ar  
    64    30    34 ar  
    65    31    32 ar  
    66    31    67 1   
    67    32    33 1   
    68    32    36 ar  
    69    34    35 ar  
    70    34    68 1   
    71    35    36 ar  
    72    35    69 1   
    73    36    70 1   
    74    40    71 1   
    75    41    71 1   
    76    42    71 1   
@<TRIPOS>SUBSTRUCTURE
     1 HRY         1 TEMP              0 ****  ****    0 ROOT
