@<TRIPOS>MOLECULE
HRY
   72    76     1     0     0
SMALL
abcg2


@<TRIPOS>ATOM
      1 N1           1.6220    -1.6610     0.5840 nb         1 HRY      -0.297000
      2 N2           1.0450     0.5830     0.0610 nb         1 HRY      -0.344000
      3 C1          -6.0220    -3.0220    -0.6330 cc         1 HRY      -0.321200
      4 C2          -4.7260    -2.6250    -0.5840 cd         1 HRY      -0.081000
      5 C3          -3.8220    -3.1770     0.3620 cd         1 HRY      -0.136200
      6 C4          -4.3320    -4.1150     1.2110 cc         1 HRY      -0.022400
      7 C6          -2.4130    -2.7620     0.4330 ca         1 HRY      -0.065800
      8 C7          -1.3940    -3.6920     0.7370 ca         1 HRY      -0.070000
      9 C8          -0.0780    -3.3200     0.7990 ca         1 HRY      -0.118000
     10 C           -6.5460    -4.0160     0.2620 c          1 HRY       0.546200
     11 N           -5.6220    -4.5210     1.1690 n          1 HRY      -0.265000
     12 C20         -2.0430    -1.4530     0.1950 ca         1 HRY      -0.047000
     13 C19         -0.7020    -1.0530     0.2540 ca         1 HRY      -0.218000
     14 C9           0.3120    -1.9860     0.5490 ca         1 HRY       0.105000
     15 C10          1.9270    -0.4040     0.3320 ca         1 HRY       0.441900
     16 N4           3.2340    -0.0370     0.3650 nh         1 HRY      -0.768300
     17 C21          3.6870     1.2400    -0.1600 c6         1 HRY       0.187300
     18 C22          4.8630     1.7560     0.6620 c6         1 HRY       0.155300
     19 N5           5.9590     0.8130     0.7860 n3         1 HRY      -0.726600
     20 C23          6.7640     0.6620    -0.4170 c3         1 HRY       0.168800
     21 C24          8.1910     0.2610    -0.0600 c3         1 HRY       0.163800
     22 N6           9.0200     0.0220    -1.2290 n3         1 HRY      -0.717600
     23 C25         10.4260     0.1030    -0.8940 c3         1 HRY       0.150600
     24 C26          8.7240    -1.2460    -1.8640 c3         1 HRY       0.150600
     25 C27          5.4480    -0.4410     1.3150 c6         1 HRY       0.155300
     26 C28          4.2840    -1.0260     0.5200 c6         1 HRY       0.187300
     27 C11         -0.2330     0.2930     0.0220 ca         1 HRY       0.436900
     28 N3          -1.0910     1.2840    -0.2500 nu         1 HRY      -0.927100
     29 C12         -0.6650     2.6570    -0.4410 c3         1 HRY       0.277100
     30 C13         -1.8230     3.4780    -0.9360 ca         1 HRY      -0.112300
     31 C18         -2.5040     4.3220    -0.0680 ca         1 HRY      -0.090000
     32 C17         -3.5870     5.0540    -0.5340 ca         1 HRY       0.116000
     33 CL          -4.4260     6.1060     0.5590 cl         1 HRY      -0.197000
     34 C14         -2.2430     3.3750    -2.2600 ca         1 HRY      -0.092000
     35 C15         -3.3270     4.1120    -2.7100 ca         1 HRY      -0.105000
     36 C16         -4.0100     4.9600    -1.8490 ca         1 HRY      -0.092000
     37 H1          -6.7030    -2.6060    -1.3630 ha         1 HRY       0.209000
     38 H2          -4.3710    -1.8870    -1.2930 ha         1 HRY       0.185000
     39 H3          -3.7260    -4.5720     1.9810 h4         1 HRY       0.201000
     40 H4          -6.8930    -5.1170     2.7320 h1         1 HRY       0.055700
     41 H5          -6.4750    -6.3960     1.5820 h1         1 HRY       0.055700
     42 H6          -5.2730    -5.8290     2.7500 h1         1 HRY       0.055700
     43 H7          -1.6530    -4.7300     0.9040 ha         1 HRY       0.110000
     44 H8           0.6910    -4.0510     1.0190 ha         1 HRY       0.131000
     45 H9          -2.8200    -0.7300    -0.0260 ha         1 HRY       0.103000
     46 H10          3.9790     1.1270    -1.2120 h1         1 HRY       0.058950
     47 H11          2.8720     1.9560    -0.1260 h1         1 HRY       0.058950
     48 H12          5.2290     2.6840     0.2190 h1         1 HRY       0.059950
     49 H13          4.5040     1.9990     1.6670 h1         1 HRY       0.059950
     50 H15          6.3260    -0.0430    -1.1370 h1         1 HRY       0.038700
     51 H16          6.8010     1.6260    -0.9300 h1         1 HRY       0.038700
     52 H17          8.6290     1.0850     0.5090 h1         1 HRY       0.037200
     53 H18          8.1920    -0.6140     0.6130 h1         1 HRY       0.037200
     54 H20         10.7430    -0.6480    -0.1540 h1         1 HRY       0.029700
     55 H21         11.0320    -0.0400    -1.7890 h1         1 HRY       0.029700
     56 H22         10.6590     1.0880    -0.4870 h1         1 HRY       0.029700
     57 H23          7.6910    -1.2840    -2.2090 h1         1 HRY       0.029700
     58 H24          9.3630    -1.3790    -2.7380 h1         1 HRY       0.029700
     59 H25          8.8860    -2.1070    -1.1960 h1         1 HRY       0.029700
     60 H26          6.2490    -1.1810     1.3650 h1         1 HRY       0.059950
     61 H27          5.1150    -0.2700     2.3440 h1         1 HRY       0.059950
     62 H28          3.8920    -1.8940     1.0440 h1         1 HRY       0.058950
     63 H29          4.6210    -1.3720    -0.4660 h1         1 HRY       0.058950
     64 H30         -2.0780     1.1240    -0.1390 hn         1 HRY       0.502000
     65 H31         -0.2700     3.0740     0.4900 h1         1 HRY       0.064200
     66 H32          0.1500     2.6780    -1.1660 h1         1 HRY       0.064200
     67 H33         -2.1910     4.4100     0.9650 ha         1 HRY       0.132000
     68 H34         -1.7170     2.7180    -2.9420 ha         1 HRY       0.124000
     69 H35         -3.6460     4.0320    -3.7400 ha         1 HRY       0.122000
     70 H36         -4.8560     5.5370    -2.1990 ha         1 HRY       0.133000
     71 C5          -6.0970    -5.5240     2.1120 c3         1 HRY       0.075300
     72 O           -7.7050    -4.4240     0.2700 o          1 HRY      -0.559000
@<TRIPOS>BOND
     1     1    14 ar  
     2     1    15 ar  
     3     2    15 ar  
     4     2    27 ar  
     5     3     4 2   
     6     3    10 1   
     7     3    37 1   
     8     4     5 1   
     9     4    38 1   
    10     5     6 2   
    11     5     7 1   
    12     6    11 1   
    13     6    39 1   
    14     7     8 ar  
    15     7    12 ar  
    16     8     9 ar  
    17     8    43 1   
    18     9    14 ar  
    19     9    44 1   
    20    10    11 1   
    21    10    72 2   
    22    11    71 1   
    23    12    13 ar  
    24    12    45 1   
    25    13    14 ar  
    26    13    27 ar  
    27    15    16 1   
    28    16    17 1   
    29    16    26 1   
    30    17    18 1   
    31    17    46 1   
    32    17    47 1   
    33    18    19 1   
    34    18    48 1   
    35    18    49 1   
    36    19    20 1   
    37    19    25 1   
    38    20    21 1   
    39    20    50 1   
    40    20    51 1   
    41    21    22 1   
    42    21    52 1   
    43    21    53 1   
    44    22    23 1   
    45    22    24 1   
    46    23    54 1   
    47    23    55 1   
    48    23    56 1   
    49    24    57 1   
    50    24    58 1   
    51    24    59 1   
    52    25    26 1   
    53    25    60 1   
    54    25    61 1   
    55    26    62 1   
    56    26    63 1   
    57    27    28 1   
    58    28    29 1   
    59    28    64 1   
    60    29    30 1   
    61    29    65 1   
    62    29    66 1   
    63    30    31 ar  
    64    30    34 ar  
    65    31    32 ar  
    66    31    67 1   
    67    32    33 1   
    68    32    36 ar  
    69    34    35 ar  
    70    34    68 1   
    71    35    36 ar  
    72    35    69 1   
    73    36    70 1   
    74    40    71 1   
    75    41    71 1   
    76    42    71 1   
@<TRIPOS>SUBSTRUCTURE
     1 HRY         1 TEMP              0 ****  ****    0 ROOT
