@<TRIPOS>MOLECULE
HRZ
   12    12     1     0     0
SMALL
No Charge or Current Charge


@<TRIPOS>ATOM
      1 C2          -1.0130     0.0080     0.0170 c          1 HRZ       0.550200
      2 C3          -0.2230    -1.2290     0.0030 cc         1 HRZ      -0.319200
      3 C5           1.8560     0.0110    -0.0320 cd         1 HRZ      -0.300000
      4 C6           1.1340     1.1890    -0.0190 cc         1 HRZ      -0.031400
      5 O1          -2.2320     0.0390     0.0380 o          1 HRZ      -0.562000
      6 C4           1.1590    -1.2510    -0.0200 cd         1 HRZ      -0.087000
      7 N7          -0.2520     1.1480     0.0040 ns         1 HRZ      -0.365100
      8 H8          -0.8050    -2.1440     0.0130 ha         1 HRZ       0.208000
      9 H10          2.9440     0.0380    -0.0500 ha         1 HRZ       0.200000
     10 H11          1.5460     2.1960    -0.0260 h4         1 HRZ       0.198000
     11 H9           1.7050    -2.1940    -0.0300 ha         1 HRZ       0.185000
     12 H12         -0.7790     2.0140     0.0140 hn         1 HRZ       0.324500
@<TRIPOS>BOND
     1     1     2 1   
     2     1     5 2   
     3     1     7 1   
     4     2     6 2   
     5     2     8 1   
     6     3     4 2   
     7     3     6 1   
     8     3     9 1   
     9     4     7 1   
    10     4    10 1   
    11     6    11 1   
    12     7    12 1   
@<TRIPOS>SUBSTRUCTURE
     1 HRZ         1 TEMP              0 ****  ****    0 ROOT
