@<TRIPOS>MOLECULE
HRZ
   12    12     1     0     0
SMALL
bcc


@<TRIPOS>ATOM
      1 C2          -1.0050    -0.0180     0.0160 c          1 HRZ       0.692700
      2 C3          -0.2300    -1.2310     0.0040 cc         1 HRZ      -0.269200
      3 C5           1.8400     0.0200    -0.0320 cd         1 HRZ      -0.250000
      4 C6           1.1160     1.1670    -0.0190 cc         1 HRZ       0.018600
      5 O1          -2.2320     0.0520     0.0350 o          1 HRZ      -0.637500
      6 C4           1.1300    -1.2050    -0.0200 cd         1 HRZ      -0.037000
      7 N7          -0.2350     1.1310     0.0050 ns         1 HRZ      -0.432100
      8 H8          -0.7700    -2.1690     0.0130 ha         1 HRZ       0.158000
      9 H10          2.9190     0.0530    -0.0510 ha         1 HRZ       0.150000
     10 H11          1.5610     2.1510    -0.0260 h4         1 HRZ       0.148000
     11 H9           1.6820    -2.1360    -0.0290 ha         1 HRZ       0.135000
     12 H12         -0.7360     2.0100     0.0150 hn         1 HRZ       0.324500
@<TRIPOS>BOND
     1     1     2 1   
     2     1     5 2   
     3     1     7 1   
     4     2     6 2   
     5     2     8 1   
     6     3     4 2   
     7     3     6 1   
     8     3     9 1   
     9     4     7 1   
    10     4    10 1   
    11     6    11 1   
    12     7    12 1   
@<TRIPOS>SUBSTRUCTURE
     1 HRZ         1 TEMP              0 ****  ****    0 ROOT
