@<TRIPOS>MOLECULE
HS0
   17    18     1     0     0
SMALL
No Charge or Current Charge


@<TRIPOS>ATOM
      1 C10         25.8490     4.1040   -18.7840 ca         1 HS0       0.002800
      2 Br1         29.7750     2.7070   -18.5330 br         1 HS0      -0.105100
      3 C02         28.0440     3.2150   -19.1660 ca         1 HS0       0.074100
      4 C03         27.7210     3.0520   -20.5350 ca         1 HS0      -0.229000
      5 C04         26.4520     3.4230   -21.0120 ca         1 HS0       0.386000
      6 N05         26.1300     3.2710   -22.3270 nv         1 HS0      -1.077000
      7 C06         25.5420     3.9460   -20.0980 ca         1 HS0      -0.288900
      8 C07         24.1880     4.4100   -20.2400 cc         1 HS0       0.362800
      9 N08         23.6820     4.8360   -19.0700 nd         1 HS0      -0.518100
     10 N09         24.7380     4.6370   -18.1690 na         1 HS0      -0.062400
     11 C11         27.0990     3.7500   -18.2660 ca         1 HS0      -0.163000
     12 H1          28.4580     2.6390   -21.2160 ha         1 HS0       0.129000
     13 H2          25.2950     3.7220   -22.6920 hn         1 HS0       0.464500
     14 H3          26.8650     3.0490   -22.9960 hn         1 HS0       0.464500
     15 H4          23.5450     4.4640   -21.1090 h4         1 HS0       0.045800
     16 H5          24.6520     4.8720   -17.1800 hn         1 HS0       0.378000
     17 H6          27.3340     3.8790   -17.2120 ha         1 HS0       0.137000
@<TRIPOS>BOND
     1     1     7 ar  
     2     1    10 1   
     3     1    11 ar  
     4     2     3 1   
     5     3     4 ar  
     6     3    11 ar  
     7     4     5 ar  
     8     4    12 1   
     9     5     6 1   
    10     5     7 ar  
    11     6    13 1   
    12     6    14 1   
    13     7     8 1   
    14     8     9 2   
    15     8    15 1   
    16     9    10 1   
    17    10    16 1   
    18    11    17 1   
@<TRIPOS>SUBSTRUCTURE
     1 HS0         1 TEMP              0 ****  ****    0 ROOT
