@<TRIPOS>MOLECULE
HS0
   17    18     1     0     0
SMALL
abcg2


@<TRIPOS>ATOM
      1 C10         25.8550     4.1020   -18.7710 ca         1 HS0       0.002800
      2 BR1         29.7150     2.7330   -18.5750 br         1 HS0      -0.105100
      3 C02         27.9870     3.2350   -19.1660 ca         1 HS0       0.074100
      4 C03         27.6990     3.0600   -20.5280 ca         1 HS0      -0.229000
      5 C04         26.4510     3.4100   -21.0370 ca         1 HS0       0.386000
      6 N05         26.1200     3.2020   -22.3430 nv         1 HS0      -1.077000
      7 C06         25.5150     3.9430   -20.1230 ca         1 HS0      -0.288900
      8 C07         24.1780     4.4140   -20.2070 cc         1 HS0       0.362800
      9 N08         23.7520     4.8170   -19.0380 nd         1 HS0      -0.518100
     10 N09         24.7610     4.6290   -18.1800 na         1 HS0      -0.062400
     11 C11         27.1050     3.7500   -18.2440 ca         1 HS0      -0.163000
     12 H1          28.4470     2.6510   -21.1940 ha         1 HS0       0.129000
     13 H2          25.3770     3.7590   -22.7310 hn         1 HS0       0.464500
     14 H3          26.8790     3.0530   -22.9880 hn         1 HS0       0.464500
     15 H4          23.5340     4.4670   -21.0720 h4         1 HS0       0.045800
     16 H5          24.6450     4.8740   -17.2100 hn         1 HS0       0.378000
     17 H6          27.3480     3.8770   -17.1990 ha         1 HS0       0.137000
@<TRIPOS>BOND
     1     1     7 ar  
     2     1    10 1   
     3     1    11 ar  
     4     2     3 1   
     5     3     4 ar  
     6     3    11 ar  
     7     4     5 ar  
     8     4    12 1   
     9     5     6 1   
    10     5     7 ar  
    11     6    13 1   
    12     6    14 1   
    13     7     8 1   
    14     8     9 2   
    15     8    15 1   
    16     9    10 1   
    17    10    16 1   
    18    11    17 1   
@<TRIPOS>SUBSTRUCTURE
     1 HS0         1 TEMP              0 ****  ****    0 ROOT
