@<TRIPOS>MOLECULE
HS1
   38    38     1     0     0
SMALL
bcc


@<TRIPOS>ATOM
      1 N1          -1.3660    -0.1580     0.4240 n3         1 HS1      -0.747500
      2 C2           3.3650    -0.3400     0.7940 ca         1 HS1      -0.211000
      3 N2           0.0630    -3.5190    -0.5140 ne         1 HS1      -0.047100
      4 C4           3.7480     0.5330    -0.2300 ca         1 HS1       0.205100
      5 C5           1.5730     1.5590    -0.1490 ca         1 HS1       0.008000
      6 C6          -3.4790     0.8810    -0.3330 c3         1 HS1       0.128100
      7 O1          -0.9430     2.0870     1.4000 o          1 HS1      -0.606800
      8 O2          -0.4570     0.0160     2.7470 o          1 HS1      -0.606800
      9 O3           4.9920     0.3880    -0.6950 os         1 HS1      -0.308900
     10 O4          -5.4230     1.9870    -1.1560 oh         1 HS1      -0.577800
     11 O7           0.4040    -1.4020    -1.4260 o          1 HS1      -0.460100
     12 C9          -0.1510    -2.0470    -0.5930 c          1 HS1       0.536500
     13 O5           1.2120    -3.8070    -0.6070 o          1 HS1      -0.089300
     14 C11         -1.1910    -1.5830     0.3900 c3         1 HS1       0.134800
     15 C8          -2.0450     0.4970    -0.6890 c3         1 HS1       0.199800
     16 O6          -4.2080    -0.2290     0.1360 oh         1 HS1      -0.568800
     17 C12         -4.1370     1.5560    -1.5240 c3         1 HS1       0.108400
     18 S1          -0.4470     0.7230     1.4770 sy         1 HS1       1.335200
     19 C3           1.2000     0.6850     0.8620 ca         1 HS1      -0.353500
     20 C7           2.8420     1.4890    -0.6950 ca         1 HS1      -0.211000
     21 C10          5.4460     1.2610    -1.7160 c3         1 HS1       0.122700
     22 C1           2.1000    -0.2650     1.3380 ca         1 HS1       0.008000
     23 H2           4.0700    -1.0730     1.1640 ha         1 HS1       0.146500
     24 H5           0.8880     2.3090    -0.5220 ha         1 HS1       0.149500
     25 H6          -3.4480     1.5900     0.4980 h1         1 HS1       0.112700
     26 HO4         -5.8470     2.3570    -1.9350 ho         1 HS1       0.405000
     27 H11         -0.9620    -1.9820     1.3820 h1         1 HS1       0.105200
     28 H11A        -2.1360    -2.0630     0.1190 h1         1 HS1       0.105200
     29 H8          -1.4890     1.3740    -1.0240 h1         1 HS1       0.054200
     30 H8A         -2.0460    -0.1920    -1.5370 h1         1 HS1       0.054200
     31 HO6         -4.3980    -0.8150    -0.6050 ho         1 HS1       0.392000
     32 H12         -3.5030     2.3930    -1.8450 h1         1 HS1       0.018700
     33 H12A        -4.1710     0.8490    -2.3670 h1         1 HS1       0.018700
     34 H7           3.1070     2.1870    -1.4760 ha         1 HS1       0.146500
     35 H10          4.8520     1.1610    -2.6270 h1         1 HS1       0.047033
     36 H10A         5.4290     2.3040    -1.3920 h1         1 HS1       0.047033
     37 H10B         6.4720     0.9750    -1.9300 h1         1 HS1       0.047033
     38 H1           1.8310    -0.9410     2.1390 ha         1 HS1       0.149500
@<TRIPOS>BOND
     1     1    14 1   
     2     1    15 1   
     3     1    18 1   
     4     2     4 ar  
     5     2    22 ar  
     6     2    23 1   
     7     3    12 1   
     8     3    13 2   
     9     4     9 1   
    10     4    20 ar  
    11     5    19 ar  
    12     5    20 ar  
    13     5    24 1   
    14     6    15 1   
    15     6    16 1   
    16     6    17 1   
    17     6    25 1   
    18     7    18 2   
    19     8    18 2   
    20     9    21 1   
    21    10    17 1   
    22    10    26 1   
    23    11    12 2   
    24    12    14 1   
    25    14    27 1   
    26    14    28 1   
    27    15    29 1   
    28    15    30 1   
    29    16    31 1   
    30    17    32 1   
    31    17    33 1   
    32    18    19 1   
    33    19    22 ar  
    34    20    34 1   
    35    21    35 1   
    36    21    36 1   
    37    21    37 1   
    38    22    38 1   
@<TRIPOS>SUBSTRUCTURE
     1 HS1         1 TEMP              0 ****  ****    0 ROOT
