@<TRIPOS>MOLECULE
HS1
   38    38     1     0     0
SMALL
No Charge or Current Charge


@<TRIPOS>ATOM
      1 N1          -1.3430    -0.1110    -0.1700 n3         1 HS1      -0.747500
      2 C2           2.9850    -0.2130     1.6050 ca         1 HS1      -0.193000
      3 N2           1.3720    -1.5440    -2.3800 ne         1 HS1      -0.047100
      4 C4           3.8840     0.1500     0.5920 ca         1 HS1       0.205100
      5 C5           2.0720     1.2690    -0.5990 ca         1 HS1       0.026000
      6 C6          -3.7890     0.7560     0.0290 c3         1 HS1       0.151300
      7 O1          -0.7330     2.2990    -0.7910 o          1 HS1      -0.536000
      8 O2          -1.0380     1.6250     1.6690 o          1 HS1      -0.536000
      9 O3           5.1990    -0.2450     0.7260 os         1 HS1      -0.332100
     10 O4          -6.0990     1.5790     0.0180 oh         1 HS1      -0.640000
     11 O7          -0.3090    -0.0680    -3.0260 o          1 HS1      -0.460100
     12 C9           0.1780    -0.8400    -2.2060 c          1 HS1       0.536500
     13 O5           2.3240    -1.3200    -3.1450 o          1 HS1      -0.089300
     14 C11         -0.4840    -1.1580    -0.8330 c3         1 HS1       0.134800
     15 C8          -2.6740     0.0680    -0.8210 c3         1 HS1       0.199800
     16 O6          -4.1350    -0.0460     1.1780 oh         1 HS1      -0.631000
     17 C12         -5.0760     0.9940    -0.8050 c3         1 HS1       0.131600
     18 S1          -0.5690     1.3430     0.3090 sy         1 HS1       1.193600
     19 C3           1.1700     0.8850     0.4140 ca         1 HS1      -0.353500
     20 C7           3.4240     0.8980    -0.5130 ca         1 HS1      -0.193000
     21 C10          6.1980     0.0650    -0.2620 c3         1 HS1       0.145900
     22 C1           1.6320     0.1540     1.5250 ca         1 HS1       0.026000
     23 H2           3.3400    -0.7850     2.4580 ha         1 HS1       0.128500
     24 H5           1.7330     1.8460    -1.4590 ha         1 HS1       0.131500
     25 H6          -3.4310     1.7450     0.3470 h1         1 HS1       0.112700
     26 HO4         -6.8750     1.7510    -0.5620 ho         1 HS1       0.444000
     27 H11          0.3200    -1.4690    -0.1550 h1         1 HS1       0.105200
     28 H11A        -1.0700    -2.0710    -0.9980 h1         1 HS1       0.105200
     29 H8          -2.5550     0.6420    -1.7500 h1         1 HS1       0.054200
     30 H8A         -3.0660    -0.9130    -1.1210 h1         1 HS1       0.054200
     31 HO6         -5.0300     0.2660     1.4410 ho         1 HS1       0.431000
     32 H12         -4.8400     1.6610    -1.6450 h1         1 HS1       0.018700
     33 H12A        -5.4230     0.0400    -1.2230 h1         1 HS1       0.018700
     34 H7           4.0960     1.1980    -1.3110 ha         1 HS1       0.128500
     35 H10          5.9330    -0.3690    -1.2340 h1         1 HS1       0.047033
     36 H10A         6.3090     1.1500    -0.3770 h1         1 HS1       0.047033
     37 H10B         7.1700    -0.3460     0.0390 h1         1 HS1       0.047033
     38 H1           0.9470    -0.1410     2.3190 ha         1 HS1       0.131500
@<TRIPOS>BOND
     1     1    14 1   
     2     1    15 1   
     3     1    18 1   
     4     2     4 ar  
     5     2    22 ar  
     6     2    23 1   
     7     3    12 1   
     8     3    13 2   
     9     4     9 1   
    10     4    20 ar  
    11     5    19 ar  
    12     5    20 ar  
    13     5    24 1   
    14     6    15 1   
    15     6    16 1   
    16     6    17 1   
    17     6    25 1   
    18     7    18 2   
    19     8    18 2   
    20     9    21 1   
    21    10    17 1   
    22    10    26 1   
    23    11    12 2   
    24    12    14 1   
    25    14    27 1   
    26    14    28 1   
    27    15    29 1   
    28    15    30 1   
    29    16    31 1   
    30    17    32 1   
    31    17    33 1   
    32    18    19 1   
    33    19    22 ar  
    34    20    34 1   
    35    21    35 1   
    36    21    36 1   
    37    21    37 1   
    38    22    38 1   
@<TRIPOS>SUBSTRUCTURE
     1 HS1         1 TEMP              0 ****  ****    0 ROOT
