@<TRIPOS>MOLECULE
HS2
   46    47     1     0     0
SMALL
bcc


@<TRIPOS>ATOM
      1 O35          2.0070    -3.6010    -0.3000 o          1 HS2      -0.795800
      2 C27          3.1100    -3.0380    -0.3730 c          1 HS2       0.933800
      3 O34          4.2110    -3.5460    -0.6550 o          1 HS2      -0.795800
      4 C19          3.1240    -1.5410    -0.0750 ce         1 HS2       0.061900
      5 C24          4.2350    -0.8030    -0.0740 c2         1 HS2      -0.387200
      6 C17          4.2440     0.6520     0.2820 c6         1 HS2       0.168300
      7 O25          5.2850     0.9860     1.1800 oh         1 HS2      -0.614800
      8 C12          2.9310     1.0230     0.9580 c6         1 HS2       0.114100
      9 O18          2.7250     2.4100     0.9990 oh         1 HS2      -0.606800
     10 C13          1.8020     0.3850     0.1600 c6         1 HS2       0.346900
     11 O13          1.9030    -1.0230     0.2090 os         1 HS2      -0.303900
     12 O3           0.5950     0.7510     0.7080 os         1 HS2      -0.384600
     13 C1          -0.5530     0.6470    -0.1160 c6         1 HS2       0.138100
     14 C4          -1.6160    -0.1530     0.6260 c6         1 HS2       0.135100
     15 O9          -1.1590    -1.4670     0.7850 oh         1 HS2      -0.532800
     16 C3          -2.9320    -0.1210    -0.1610 c6         1 HS2       0.041700
     17 N14         -3.9730    -0.8140     0.5550 ns         1 HS2      -0.574900
     18 C7          -4.6150    -1.9120     0.1050 c          1 HS2       0.667100
     19 C8          -5.6750    -2.4510     1.0330 c3         1 HS2      -0.181100
     20 O7          -4.3630    -2.4480    -0.9640 o          1 HS2      -0.592100
     21 C10         -3.3470     1.3110    -0.4920 c6         1 HS2       0.326900
     22 O15         -3.7200     1.9380     0.6930 oh         1 HS2      -0.624800
     23 O5          -2.3000     1.9660    -1.1490 os         1 HS2      -0.421600
     24 C2          -1.0840     2.0550    -0.4250 c6         1 HS2       0.125100
     25 C6          -0.1240     2.8650    -1.2720 c3         1 HS2       0.136400
     26 O11         -0.6760     4.1430    -1.4800 oh         1 HS2      -0.596800
     27 H24          5.1690    -1.2770    -0.3430 ha         1 HS2       0.159000
     28 H17          4.3350     1.2580    -0.6310 h1         1 HS2       0.015700
     29 HO25         6.1140     1.0020     0.6910 ho         1 HS2       0.400000
     30 H12          2.9250     0.5870     1.9700 h1         1 HS2       0.073700
     31 HO18         3.5220     2.8170     1.3560 ho         1 HS2       0.407000
     32 H13          1.8800     0.6980    -0.8960 h2         1 HS2       0.021700
     33 H1          -0.3150     0.1330    -1.0580 h1         1 HS2       0.079700
     34 H4          -1.7750     0.3270     1.6050 h1         1 HS2       0.041700
     35 HO9         -1.7630    -1.9240     1.3780 ho         1 HS2       0.397000
     36 H3          -2.7770    -0.6430    -1.1080 h1         1 HS2       0.112700
     37 HN14        -4.2740    -0.4100     1.4280 hn         1 HS2       0.315500
     38 H8          -5.8500    -1.8280     1.9080 hc         1 HS2       0.056367
     39 H8A         -6.6130    -2.5580     0.4890 hc         1 HS2       0.056367
     40 H8B         -5.3810    -3.4450     1.3730 hc         1 HS2       0.056367
     41 H10         -4.1720     1.2990    -1.2130 h2         1 HS2       0.063700
     42 HO15        -4.2010     2.7470     0.4890 ho         1 HS2       0.413000
     43 H2          -1.2390     2.5800     0.5260 h1         1 HS2       0.066700
     44 H6           0.8330     2.9300    -0.7450 h1         1 HS2       0.042700
     45 H6A          0.0590     2.3390    -2.2200 h1         1 HS2       0.042700
     46 HO11         0.0040     4.6960    -1.8740 ho         1 HS2       0.396000
@<TRIPOS>BOND
     1     1     2 1   
     2     2     3 1   
     3     2     4 1   
     4     4     5 2   
     5     4    11 1   
     6     5     6 1   
     7     5    27 1   
     8     6     7 1   
     9     6     8 1   
    10     6    28 1   
    11     7    29 1   
    12     8     9 1   
    13     8    10 1   
    14     8    30 1   
    15     9    31 1   
    16    10    11 1   
    17    10    12 1   
    18    10    32 1   
    19    12    13 1   
    20    13    14 1   
    21    13    24 1   
    22    13    33 1   
    23    14    15 1   
    24    14    16 1   
    25    14    34 1   
    26    15    35 1   
    27    16    17 1   
    28    16    21 1   
    29    16    36 1   
    30    17    18 1   
    31    17    37 1   
    32    18    19 1   
    33    18    20 2   
    34    19    38 1   
    35    19    39 1   
    36    19    40 1   
    37    21    22 1   
    38    21    23 1   
    39    21    41 1   
    40    22    42 1   
    41    23    24 1   
    42    24    25 1   
    43    24    43 1   
    44    25    26 1   
    45    25    44 1   
    46    25    45 1   
    47    26    46 1   
@<TRIPOS>SUBSTRUCTURE
     1 HS2         1 TEMP              0 ****  ****    0 ROOT
