@<TRIPOS>MOLECULE
HS2
   46    47     1     0     0
SMALL
No Charge or Current Charge


@<TRIPOS>ATOM
      1 O35          2.5370    -3.4700    -1.0320 o          1 HS2      -0.690500
      2 C27          3.5500    -2.7900    -0.9040 c          1 HS2       0.723200
      3 O34          4.6620    -3.2140    -1.2010 o          1 HS2      -0.690500
      4 C19          3.4230    -1.3570    -0.3600 ce         1 HS2       0.061900
      5 C24          4.4920    -0.5270    -0.1960 c2         1 HS2      -0.437200
      6 C17          4.3600     0.8750     0.3440 c6         1 HS2       0.191500
      7 O25          5.4920     1.1670     1.1590 oh         1 HS2      -0.677000
      8 C12          3.0440     1.0220     1.1540 c6         1 HS2       0.137300
      9 O18          2.8550     2.4030     1.5610 oh         1 HS2      -0.729000
     10 C13          1.8950     0.4560     0.2640 c6         1 HS2       0.393300
     11 O13          2.1310    -0.9370    -0.0440 os         1 HS2      -0.327100
     12 O3           0.6140     0.5760     0.9270 os         1 HS2      -0.431000
     13 C1          -0.5590     0.4630     0.0770 c6         1 HS2       0.161300
     14 C4          -1.7160    -0.2620     0.8390 c6         1 HS2       0.158300
     15 O9          -1.3110    -1.5710     1.2880 oh         1 HS2      -0.655000
     16 C3          -2.9890    -0.3740    -0.0510 c6         1 HS2       0.041700
     17 N14         -4.1130    -1.0040     0.6920 ns         1 HS2      -0.507900
     18 C7          -5.1450    -1.7070     0.1160 c          1 HS2       0.600100
     19 C8          -6.2370    -2.1500     1.0800 c3         1 HS2      -0.181100
     20 O7          -5.1770    -1.9560    -1.0790 o          1 HS2      -0.592100
     21 C10         -3.3830     1.0360    -0.6010 c6         1 HS2       0.373300
     22 O15         -3.8230     1.9150     0.4300 oh         1 HS2      -0.687000
     23 O5          -2.2630     1.6590    -1.2500 os         1 HS2      -0.468000
     24 C2          -1.0760     1.8510    -0.4270 c6         1 HS2       0.148300
     25 C6          -0.0350     2.6620    -1.2680 c3         1 HS2       0.159600
     26 O11         -0.5690     3.8880    -1.8120 oh         1 HS2      -0.719000
     27 H24          5.4970    -0.8640    -0.4560 ha         1 HS2       0.209000
     28 H17          4.3280     1.5690    -0.5090 h1         1 HS2       0.015700
     29 HO25         6.2800     1.0690     0.5810 ho         1 HS2       0.439000
     30 H12          3.1170     0.3770     2.0430 h1         1 HS2       0.073700
     31 HO18         3.7450     2.6980     1.8670 ho         1 HS2       0.506000
     32 H13          1.8850     1.0230    -0.6760 h2         1 HS2       0.021700
     33 H1          -0.3050    -0.1530    -0.7990 h1         1 HS2       0.079700
     34 H4          -1.9700     0.3540     1.7150 h1         1 HS2       0.041700
     35 HO9         -2.1330    -2.0460     1.5450 ho         1 HS2       0.496000
     36 H3          -2.7470    -1.0060    -0.9180 h1         1 HS2       0.112700
     37 HN14        -4.2230    -0.7810     1.6750 hn         1 HS2       0.315500
     38 H8          -6.6260    -1.2710     1.6070 hc         1 HS2       0.056367
     39 H8A         -7.0370    -2.7110     0.5830 hc         1 HS2       0.056367
     40 H8B         -5.7830    -2.7270     1.8940 hc         1 HS2       0.056367
     41 H10         -4.1920     0.9080    -1.3370 h2         1 HS2       0.063700
     42 HO15        -3.9280     2.7840    -0.0120 ho         1 HS2       0.452000
     43 H2          -1.3360     2.4670     0.4460 h1         1 HS2       0.066700
     44 H6           0.8210     2.8930    -0.6210 h1         1 HS2       0.042700
     45 H6A          0.3280     2.0160    -2.0800 h1         1 HS2       0.042700
     46 HO11         0.1350     4.2880    -2.3730 ho         1 HS2       0.495000
@<TRIPOS>BOND
     1     1     2 1   
     2     2     3 1   
     3     2     4 1   
     4     4     5 2   
     5     4    11 1   
     6     5     6 1   
     7     5    27 1   
     8     6     7 1   
     9     6     8 1   
    10     6    28 1   
    11     7    29 1   
    12     8     9 1   
    13     8    10 1   
    14     8    30 1   
    15     9    31 1   
    16    10    11 1   
    17    10    12 1   
    18    10    32 1   
    19    12    13 1   
    20    13    14 1   
    21    13    24 1   
    22    13    33 1   
    23    14    15 1   
    24    14    16 1   
    25    14    34 1   
    26    15    35 1   
    27    16    17 1   
    28    16    21 1   
    29    16    36 1   
    30    17    18 1   
    31    17    37 1   
    32    18    19 1   
    33    18    20 2   
    34    19    38 1   
    35    19    39 1   
    36    19    40 1   
    37    21    22 1   
    38    21    23 1   
    39    21    41 1   
    40    22    42 1   
    41    23    24 1   
    42    24    25 1   
    43    24    43 1   
    44    25    26 1   
    45    25    44 1   
    46    25    45 1   
    47    26    46 1   
@<TRIPOS>SUBSTRUCTURE
     1 HS2         1 TEMP              0 ****  ****    0 ROOT
