@<TRIPOS>MOLECULE
HS3
   31    31     1     0     0
SMALL
No Charge or Current Charge


@<TRIPOS>ATOM
      1 O3           3.5160     0.6010     1.0570 o          1 HS3      -0.428100
      2 C8           2.5840     1.1560     0.4790 c          1 HS3       0.585500
      3 N1           2.3930     2.5410     0.4220 ne         1 HS3      -0.057100
      4 O6           3.0970     3.4630     0.8650 o          1 HS3      -0.092300
      5 C9           1.4440     0.3750    -0.2530 c3         1 HS3       0.151500
      6 C7           1.6120     0.5270    -1.7940 c3         1 HS3       0.138600
      7 O4           2.7520    -0.2260    -2.2500 oh         1 HS3      -0.660000
      8 N2           1.3780    -1.0810     0.1400 n7         1 HS3      -0.873300
      9 S1           0.0480    -2.0180    -0.2370 sy         1 HS3       1.174600
     10 O1           0.1750    -2.3600    -1.6540 o          1 HS3      -0.530000
     11 O2          -0.0150    -3.0310     0.8190 o          1 HS3      -0.530000
     12 C3          -1.2960    -0.8500     0.0010 ca         1 HS3      -0.366500
     13 C6          -1.9720    -0.3020    -1.1080 ca         1 HS3       0.023000
     14 C5          -3.0110     0.6190    -0.9020 ca         1 HS3      -0.199500
     15 C4          -3.3860     0.9960     0.3960 ca         1 HS3       0.199100
     16 C2          -2.7110     0.4430     1.5040 ca         1 HS3      -0.199500
     17 C1          -1.6690    -0.4790     1.3070 ca         1 HS3       0.023000
     18 O5          -4.4150     1.9060     0.5290 os         1 HS3      -0.332100
     19 C10         -4.8770     2.3600     1.8140 c3         1 HS3       0.144900
     20 H9           0.5240     0.8990     0.0390 h1         1 HS3       0.099700
     21 H7           0.7010     0.1770    -2.2950 h1         1 HS3       0.042700
     22 H7A          1.7260     1.5900    -2.0510 h1         1 HS3       0.042700
     23 HO4          2.7730    -0.1590    -3.2320 ho         1 HS3       0.457000
     24 HN2          2.1050    -1.5720    -0.3820 hn         1 HS3       0.510000
     25 H6          -1.6990    -0.5830    -2.1250 ha         1 HS3       0.136500
     26 H5          -3.5330     1.0430    -1.7560 ha         1 HS3       0.130500
     27 H2          -2.9770     0.7150     2.5210 ha         1 HS3       0.130500
     28 H1          -1.1510    -0.8970     2.1700 ha         1 HS3       0.136500
     29 H10         -5.2470     1.5190     2.4150 h1         1 HS3       0.048700
     30 H10A        -4.0690     2.8590     2.3650 h1         1 HS3       0.048700
     31 H10B        -5.6970     3.0770     1.6910 h1         1 HS3       0.048700
@<TRIPOS>BOND
     1     1     2 2   
     2     2     3 1   
     3     2     5 1   
     4     3     4 2   
     5     5     6 1   
     6     5     8 1   
     7     5    20 1   
     8     6     7 1   
     9     6    21 1   
    10     6    22 1   
    11     7    23 1   
    12     8     9 1   
    13     8    24 1   
    14     9    10 2   
    15     9    11 2   
    16     9    12 1   
    17    12    13 ar  
    18    12    17 ar  
    19    13    14 ar  
    20    13    25 1   
    21    14    15 ar  
    22    14    26 1   
    23    15    16 ar  
    24    15    18 1   
    25    16    17 ar  
    26    16    27 1   
    27    17    28 1   
    28    18    19 1   
    29    19    29 1   
    30    19    30 1   
    31    19    31 1   
@<TRIPOS>SUBSTRUCTURE
     1 HS3         1 TEMP              0 ****  ****    0 ROOT
