@<TRIPOS>MOLECULE
HS3
   31    31     1     0     0
SMALL
bcc


@<TRIPOS>ATOM
      1 O3           4.0640    -0.3070    -0.5790 o          1 HS3      -0.428100
      2 C8           3.3170     0.4610    -0.0610 c          1 HS3       0.585500
      3 N1           3.8360     1.7460     0.4790 ne         1 HS3      -0.057100
      4 O6           4.8070     1.5880     1.1440 o          1 HS3      -0.092300
      5 C9           1.8150     0.3400     0.0570 c3         1 HS3       0.151500
      6 C7           1.1500     1.5170    -0.6550 c3         1 HS3       0.115400
      7 O4           1.6410     1.5150    -1.9710 oh         1 HS3      -0.597800
      8 N2           1.4180    -0.9530    -0.4520 n7         1 HS3      -0.818100
      9 S1           0.2630    -1.8400     0.3210 sy         1 HS3       1.316200
     10 O1           0.1310    -3.0570    -0.4590 o          1 HS3      -0.600800
     11 O2           0.6510    -1.8950     1.7200 o          1 HS3      -0.600800
     12 C3          -1.2430    -0.9350     0.2080 ca         1 HS3      -0.366500
     13 C6          -1.9490    -0.9390    -0.9940 ca         1 HS3       0.005000
     14 C5          -3.0890    -0.1760    -1.1170 ca         1 HS3      -0.217500
     15 C4          -3.5410     0.6000    -0.0420 ca         1 HS3       0.199100
     16 C2          -2.8330     0.5930     1.1600 ca         1 HS3      -0.217500
     17 C1          -1.6840    -0.1750     1.2800 ca         1 HS3       0.005000
     18 O5          -4.6520     1.3080    -0.2560 os         1 HS3      -0.308900
     19 C10         -5.1490     2.1360     0.7820 c3         1 HS3       0.121700
     20 H9           1.5700     0.4080     1.1230 h1         1 HS3       0.099700
     21 H7           0.0640     1.3860    -0.6090 h1         1 HS3       0.042700
     22 H7A          1.3900     2.4410    -0.1200 h1         1 HS3       0.042700
     23 HO4          1.1950     2.2040    -2.4710 ho         1 HS3       0.418000
     24 HN2          1.3880    -1.0330    -1.4620 hn         1 HS3       0.454800
     25 H6          -1.6190    -1.5340    -1.8360 ha         1 HS3       0.154500
     26 H5          -3.6430    -0.1730    -2.0460 ha         1 HS3       0.148500
     27 H2          -3.1590     1.1730     2.0110 ha         1 HS3       0.148500
     28 H1          -1.1470    -0.1720     2.2190 ha         1 HS3       0.154500
     29 H10         -5.4320     1.5560     1.6630 h1         1 HS3       0.048700
     30 H10A        -4.4220     2.8970     1.0740 h1         1 HS3       0.048700
     31 H10B        -6.0340     2.6260     0.3850 h1         1 HS3       0.048700
@<TRIPOS>BOND
     1     1     2 2   
     2     2     3 1   
     3     2     5 1   
     4     3     4 2   
     5     5     6 1   
     6     5     8 1   
     7     5    20 1   
     8     6     7 1   
     9     6    21 1   
    10     6    22 1   
    11     7    23 1   
    12     8     9 1   
    13     8    24 1   
    14     9    10 2   
    15     9    11 2   
    16     9    12 1   
    17    12    13 ar  
    18    12    17 ar  
    19    13    14 ar  
    20    13    25 1   
    21    14    15 ar  
    22    14    26 1   
    23    15    16 ar  
    24    15    18 1   
    25    16    17 ar  
    26    16    27 1   
    27    17    28 1   
    28    18    19 1   
    29    19    29 1   
    30    19    30 1   
    31    19    31 1   
@<TRIPOS>SUBSTRUCTURE
     1 HS3         1 TEMP              0 ****  ****    0 ROOT
