@<TRIPOS>MOLECULE
HS4
   35    36     1     0     0
SMALL
abcg2


@<TRIPOS>ATOM
      1 O4          -1.8870    -3.0820     0.1610 o          1 HS4      -0.530000
      2 S1          -1.7930    -1.8440    -0.5910 sy         1 HS4       1.158600
      3 O3          -2.1520    -1.8080    -1.9980 o          1 HS4      -0.530000
      4 N1          -2.7810    -0.7760     0.1770 n7         1 HS4      -0.860300
      5 C12         -2.8900     0.5730    -0.3420 c3         1 HS4       0.117800
      6 C14         -3.7830     1.3650     0.6000 c          1 HS4       0.606100
      7 O1          -3.8110     1.1490     1.7970 o          1 HS4      -0.566100
      8 N2          -4.4660     2.3360    -0.0170 ns         1 HS4      -0.387400
      9 O2          -5.3340     3.1130     0.6830 oh         1 HS4      -0.411100
     10 C13         -0.1460    -1.2150    -0.4330 ca         1 HS4      -0.318500
     11 C10          0.5770    -1.4880     0.7220 ca         1 HS4      -0.015500
     12 C5           1.8490    -0.9630     0.8620 ca         1 HS4      -0.124000
     13 C11          0.3930    -0.4270    -1.4410 ca         1 HS4      -0.015500
     14 C8           1.6650     0.0970    -1.2830 ca         1 HS4      -0.124000
     15 C2           2.4130    -0.1610    -0.1330 cp         1 HS4       0.030000
     16 C1           3.7680     0.3990     0.0300 cp         1 HS4      -0.057000
     17 C4           4.6230     0.5340    -1.0660 ca         1 HS4      -0.091500
     18 C7           5.8960     1.0610    -0.9100 ca         1 HS4      -0.111000
     19 C9           6.3370     1.4640     0.3440 ca         1 HS4      -0.097000
     20 C6           5.4960     1.3340     1.4410 ca         1 HS4      -0.111000
     21 C3           4.2230     0.8050     1.2860 ca         1 HS4      -0.091500
     22 HN1         -2.6960    -0.8180     1.1890 hn         1 HS4       0.507000
     23 H12         -1.9250     1.0950    -0.3900 h1         1 HS4       0.069200
     24 H12A        -3.3000     0.5480    -1.3510 h1         1 HS4       0.069200
     25 H10          0.1690    -2.1140     1.5030 ha         1 HS4       0.135500
     26 H5           2.4150    -1.2040     1.7520 ha         1 HS4       0.122000
     27 H11         -0.1620    -0.2170    -2.3450 ha         1 HS4       0.135500
     28 H8           2.0680     0.7270    -2.0650 ha         1 HS4       0.122000
     29 H4           4.3030     0.2060    -2.0460 ha         1 HS4       0.115500
     30 H7           6.5470     1.1510    -1.7700 ha         1 HS4       0.117000
     31 H9           7.3300     1.8770     0.4650 ha         1 HS4       0.116000
     32 H6           5.8290     1.6500     2.4210 ha         1 HS4       0.117000
     33 H3           3.5730     0.7290     2.1480 ha         1 HS4       0.115500
     34 H1          -4.5240     2.4170    -1.0220 hn         1 HS4       0.344500
     35 H2          -4.8470     3.9110     0.9290 ho         1 HS4       0.443000
@<TRIPOS>BOND
     1     1     2 2   
     2     2     3 2   
     3     2     4 1   
     4     2    10 1   
     5     4     5 1   
     6     4    22 1   
     7     5     6 1   
     8     5    23 1   
     9     5    24 1   
    10     6     7 2   
    11     6     8 1   
    12     8     9 1   
    13     8    34 1   
    14     9    35 1   
    15    10    11 ar  
    16    10    13 ar  
    17    11    12 ar  
    18    11    25 1   
    19    12    15 ar  
    20    12    26 1   
    21    13    14 ar  
    22    13    27 1   
    23    14    15 ar  
    24    14    28 1   
    25    15    16 1   
    26    16    17 ar  
    27    16    21 ar  
    28    17    18 ar  
    29    17    29 1   
    30    18    19 ar  
    31    18    30 1   
    32    19    20 ar  
    33    19    31 1   
    34    20    21 ar  
    35    20    32 1   
    36    21    33 1   
@<TRIPOS>SUBSTRUCTURE
     1 HS4         1 TEMP              0 ****  ****    0 ROOT
