@<TRIPOS>MOLECULE
HS4
   35    36     1     0     0
SMALL
No Charge or Current Charge


@<TRIPOS>ATOM
      1 O4          -2.0100    -2.4120    -0.2480 o          1 HS4      -0.530000
      2 S1          -1.6660    -1.1660    -0.9380 sy         1 HS4       1.158600
      3 O3          -1.9840    -0.9150    -2.3460 o          1 HS4      -0.530000
      4 N1          -2.3870     0.0550    -0.0630 n7         1 HS4      -0.860300
      5 C12         -3.7740     0.4810    -0.4420 c3         1 HS4       0.117800
      6 C14         -4.3090     1.7210     0.3390 c          1 HS4       0.606100
      7 O1          -3.5680     2.5780     0.8150 o          1 HS4      -0.566100
      8 N2          -5.6960     1.8040     0.4430 ns         1 HS4      -0.387400
      9 O2          -6.3230     2.7550     1.3400 oh         1 HS4      -0.411100
     10 C13          0.0560    -0.7620    -0.6230 ca         1 HS4      -0.318500
     11 C10          0.6680    -1.1760     0.5770 ca         1 HS4      -0.015500
     12 C5           2.0130    -0.8560     0.8270 ca         1 HS4      -0.124000
     13 C11          0.8020    -0.0250    -1.5660 ca         1 HS4      -0.015500
     14 C8           2.1470     0.2880    -1.3070 ca         1 HS4      -0.124000
     15 C2           2.7820    -0.1200    -0.1070 cp         1 HS4       0.030000
     16 C1           4.2170     0.2180     0.1640 cp         1 HS4      -0.057000
     17 C4           5.1710     0.2590    -0.8850 ca         1 HS4      -0.091500
     18 C7           6.5180     0.5750    -0.6310 ca         1 HS4      -0.111000
     19 C9           6.9390     0.8580     0.6780 ca         1 HS4      -0.097000
     20 C6           6.0130     0.8230     1.7330 ca         1 HS4      -0.111000
     21 C3           4.6670     0.5060     1.4780 ca         1 HS4      -0.091500
     22 HN1         -1.7270     0.8220    -0.1960 hn         1 HS4       0.507000
     23 H12         -3.8350     0.7410    -1.5070 h1         1 HS4       0.069200
     24 H12A        -4.4780    -0.3440    -0.2710 h1         1 HS4       0.069200
     25 H10          0.1060    -1.7440     1.3170 ha         1 HS4       0.135500
     26 H5           2.4670    -1.1980     1.7540 ha         1 HS4       0.122000
     27 H11          0.3490     0.3080    -2.4980 ha         1 HS4       0.135500
     28 H8           2.6990     0.8670    -2.0420 ha         1 HS4       0.122000
     29 H4           4.8700     0.0310    -1.9040 ha         1 HS4       0.115500
     30 H7           7.2340     0.5980    -1.4490 ha         1 HS4       0.117000
     31 H9           7.9810     1.1020     0.8750 ha         1 HS4       0.116000
     32 H6           6.3360     1.0450     2.7470 ha         1 HS4       0.117000
     33 H3           3.9640     0.4990     2.3080 ha         1 HS4       0.115500
     34 H1          -6.2690     1.0080     0.1610 hn         1 HS4       0.344500
     35 H2          -6.9980     3.2000     0.7750 ho         1 HS4       0.443000
@<TRIPOS>BOND
     1     1     2 2   
     2     2     3 2   
     3     2     4 1   
     4     2    10 1   
     5     4     5 1   
     6     4    22 1   
     7     5     6 1   
     8     5    23 1   
     9     5    24 1   
    10     6     7 2   
    11     6     8 1   
    12     8     9 1   
    13     8    34 1   
    14     9    35 1   
    15    10    11 ar  
    16    10    13 ar  
    17    11    12 ar  
    18    11    25 1   
    19    12    15 ar  
    20    12    26 1   
    21    13    14 ar  
    22    13    27 1   
    23    14    15 ar  
    24    14    28 1   
    25    15    16 1   
    26    16    17 ar  
    27    16    21 ar  
    28    17    18 ar  
    29    17    29 1   
    30    18    19 ar  
    31    18    30 1   
    32    19    20 ar  
    33    19    31 1   
    34    20    21 ar  
    35    20    32 1   
    36    21    33 1   
@<TRIPOS>SUBSTRUCTURE
     1 HS4         1 TEMP              0 ****  ****    0 ROOT
