@<TRIPOS>MOLECULE
HS5
   30    30     1     0     0
SMALL
bcc


@<TRIPOS>ATOM
      1 O5          -0.1230     0.2750    -2.5270 o          1 HS5      -0.602300
      2 S1          -0.2330     0.5600    -1.1080 sy         1 HS5       1.333200
      3 O4          -0.8380     1.8020    -0.6470 o          1 HS5      -0.602300
      4 N2          -1.1020    -0.6430    -0.4040 n3         1 HS5      -0.769500
      5 C10         -1.9120    -0.3080     0.7370 c3         1 HS5       0.150800
      6 C9          -3.1570     0.4360     0.3470 c          1 HS5       0.568500
      7 O3          -3.6640     0.4950    -0.7280 o          1 HS5      -0.450100
      8 N1          -3.8350     1.0260     1.5330 ne         1 HS5      -0.059100
      9 O2          -4.2690     2.1100     1.3100 o          1 HS5      -0.082300
     10 C8          -0.9520    -2.0330    -0.8220 c3         1 HS5       0.223800
     11 C6           0.0490    -2.8310    -0.0120 c3         1 HS5       0.112400
     12 O1          -0.3690    -2.8680     1.3310 oh         1 HS5      -0.602800
     13 C3           1.3990     0.4790    -0.4270 ca         1 HS5      -0.317500
     14 C5           2.4040    -0.1800    -1.1230 ca         1 HS5      -0.005500
     15 C7           3.6710    -0.2710    -0.5710 ca         1 HS5      -0.195500
     16 C4           3.8990     0.3050     0.6640 ca         1 HS5       0.191900
     17 F1           5.1200     0.2240     1.1960 f          1 HS5      -0.131900
     18 C2           2.9110     0.9720     1.3670 ca         1 HS5      -0.195500
     19 C1           1.6460     1.0610     0.8100 ca         1 HS5      -0.005500
     20 H10         -2.2330    -1.2300     1.2270 h1         1 HS5       0.092200
     21 H10A        -1.3720     0.2400     1.5140 h1         1 HS5       0.092200
     22 H8          -1.9390    -2.4980    -0.7670 h1         1 HS5       0.077700
     23 H8A         -0.6650    -2.0640    -1.8730 h1         1 HS5       0.077700
     24 H6           0.1020    -3.8350    -0.4540 h1         1 HS5       0.029200
     25 H6A          1.0460    -2.3890    -0.1110 h1         1 HS5       0.029200
     26 HO1          0.3440    -3.2330     1.8630 ho         1 HS5       0.412000
     27 H5           2.2150    -0.6230    -2.0910 ha         1 HS5       0.157500
     28 H7           4.4680    -0.7780    -1.0980 ha         1 HS5       0.157500
     29 H2           3.1250     1.4210     2.3270 ha         1 HS5       0.157500
     30 H1           0.8740     1.5970     1.3450 ha         1 HS5       0.157500
@<TRIPOS>BOND
     1     1     2 2   
     2     2     3 2   
     3     2     4 1   
     4     2    13 1   
     5     4     5 1   
     6     4    10 1   
     7     5     6 1   
     8     5    20 1   
     9     5    21 1   
    10     6     7 2   
    11     6     8 1   
    12     8     9 2   
    13    10    11 1   
    14    10    22 1   
    15    10    23 1   
    16    11    12 1   
    17    11    24 1   
    18    11    25 1   
    19    12    26 1   
    20    13    14 ar  
    21    13    19 ar  
    22    14    15 ar  
    23    14    27 1   
    24    15    16 ar  
    25    15    28 1   
    26    16    17 1   
    27    16    18 ar  
    28    18    19 ar  
    29    18    29 1   
    30    19    30 1   
@<TRIPOS>SUBSTRUCTURE
     1 HS5         1 TEMP              0 ****  ****    0 ROOT
