@<TRIPOS>MOLECULE
HS5
   30    30     1     0     0
SMALL
No Charge or Current Charge


@<TRIPOS>ATOM
      1 O5          -0.7000     1.7080    -1.0550 o          1 HS5      -0.531500
      2 S1          -0.2530     0.8160     0.0190 sy         1 HS5       1.191600
      3 O4          -0.4920     1.1120     1.4340 o          1 HS5      -0.531500
      4 N2          -0.9820    -0.6950    -0.3100 n3         1 HS5      -0.769500
      5 C10         -2.4530    -0.7550    -0.0070 c3         1 HS5       0.150800
      6 C9          -3.3930     0.2230    -0.7650 c          1 HS5       0.568500
      7 O3          -3.6470     0.1000    -1.9600 o          1 HS5      -0.450100
      8 N1          -3.9050     1.2240     0.0670 ne         1 HS5      -0.059100
      9 O2          -4.6350     2.1900    -0.2040 o          1 HS5      -0.082300
     10 C8          -0.2210    -1.9170     0.0960 c3         1 HS5       0.223800
     11 C6          -0.0740    -2.1950     1.6250 c3         1 HS5       0.135600
     12 O1          -1.3210    -2.5910     2.2280 oh         1 HS5      -0.665000
     13 C3           1.4990     0.4950    -0.2470 ca         1 HS5      -0.317500
     14 C5           1.9830     0.3310    -1.5620 ca         1 HS5       0.012500
     15 C7           3.3470     0.0720    -1.7770 ca         1 HS5      -0.177500
     16 C4           4.2230    -0.0190    -0.6860 ca         1 HS5       0.227000
     17 F1           5.5340    -0.2670    -0.8970 f          1 HS5      -0.167000
     18 C2           3.7480     0.1480     0.6230 ca         1 HS5      -0.177500
     19 C1           2.3850     0.4060     0.8480 ca         1 HS5       0.012500
     20 H10         -2.8410    -1.7550    -0.2370 h1         1 HS5       0.092200
     21 H10A        -2.6240    -0.6050     1.0680 h1         1 HS5       0.092200
     22 H8          -0.7010    -2.8010    -0.3450 h1         1 HS5       0.077700
     23 H8A          0.7870    -1.9040    -0.3380 h1         1 HS5       0.077700
     24 H6           0.6630    -2.9990     1.7520 h1         1 HS5       0.029200
     25 H6A          0.3320    -1.3080     2.1280 h1         1 HS5       0.029200
     26 HO1         -1.1440    -2.7450     3.1830 ho         1 HS5       0.451000
     27 H5           1.3050     0.3950    -2.4130 ha         1 HS5       0.139500
     28 H7           3.7250    -0.0580    -2.7870 ha         1 HS5       0.139500
     29 H2           4.4360     0.0770     1.4600 ha         1 HS5       0.139500
     30 H1           2.0280     0.5360     1.8690 ha         1 HS5       0.139500
@<TRIPOS>BOND
     1     1     2 2   
     2     2     3 2   
     3     2     4 1   
     4     2    13 1   
     5     4     5 1   
     6     4    10 1   
     7     5     6 1   
     8     5    20 1   
     9     5    21 1   
    10     6     7 2   
    11     6     8 1   
    12     8     9 2   
    13    10    11 1   
    14    10    22 1   
    15    10    23 1   
    16    11    12 1   
    17    11    24 1   
    18    11    25 1   
    19    12    26 1   
    20    13    14 ar  
    21    13    19 ar  
    22    14    15 ar  
    23    14    27 1   
    24    15    16 ar  
    25    15    28 1   
    26    16    17 1   
    27    16    18 ar  
    28    18    19 ar  
    29    18    29 1   
    30    19    30 1   
@<TRIPOS>SUBSTRUCTURE
     1 HS5         1 TEMP              0 ****  ****    0 ROOT
