@<TRIPOS>MOLECULE
HS6
   23    23     1     0     0
SMALL
bcc


@<TRIPOS>ATOM
      1 O4           0.2900    -2.8260     0.5140 o          1 HS6      -0.594300
      2 S1           0.0410    -1.6620    -0.3140 sy         1 HS6       1.301200
      3 O3          -0.2330    -1.8060    -1.7320 o          1 HS6      -0.594300
      4 N1          -1.2760    -0.9150     0.3500 n7         1 HS6      -0.799100
      5 C6          -1.7460     0.3070    -0.2540 c3         1 HS6       0.112800
      6 C8          -3.0730     0.6920     0.3060 c          1 HS6       0.564500
      7 O2          -3.6690     0.1750     1.1950 o          1 HS6      -0.435100
      8 N2          -3.5930     1.9390    -0.3720 ne         1 HS6      -0.056100
      9 O1          -4.7620     2.0540    -0.2210 o          1 HS6      -0.077300
     10 C3           1.3920    -0.5350    -0.1300 ca         1 HS6      -0.341500
     11 C1           2.0800    -0.4950     1.0790 ca         1 HS6      -0.007000
     12 C5           1.7190     0.3220    -1.1720 ca         1 HS6      -0.007000
     13 C7           2.7460     1.2370    -1.0060 ca         1 HS6      -0.192500
     14 C4           3.4170     1.2680     0.2020 ca         1 HS6       0.196900
     15 F1           4.4060     2.1490     0.3640 f          1 HS6      -0.128900
     16 C2           3.1060     0.4170     1.2480 ca         1 HS6      -0.192500
     17 HN1         -1.2310    -0.8920     1.3650 hn         1 HS6       0.437800
     18 H6          -1.0710     1.1650    -0.1210 h1         1 HS6       0.086700
     19 H6A         -1.8660     0.1790    -1.3340 h1         1 HS6       0.086700
     20 H1           1.8310    -1.1680     1.8880 ha         1 HS6       0.159000
     21 H5           1.1930     0.2830    -2.1160 ha         1 HS6       0.159000
     22 H7           3.0190     1.9110    -1.8060 ha         1 HS6       0.160000
     23 H2           3.6560     0.4640     2.1780 ha         1 HS6       0.160000
@<TRIPOS>BOND
     1     1     2 2   
     2     2     3 2   
     3     2     4 1   
     4     2    10 1   
     5     4     5 1   
     6     4    17 1   
     7     5     6 1   
     8     5    18 1   
     9     5    19 1   
    10     6     7 2   
    11     6     8 1   
    12     8     9 2   
    13    10    11 ar  
    14    10    12 ar  
    15    11    16 ar  
    16    11    20 1   
    17    12    13 ar  
    18    12    21 1   
    19    13    14 ar  
    20    13    22 1   
    21    14    15 1   
    22    14    16 ar  
    23    16    23 1   
@<TRIPOS>SUBSTRUCTURE
     1 HS6         1 TEMP              0 ****  ****    0 ROOT
