@<TRIPOS>MOLECULE
HS6
   23    23     1     0     0
SMALL
No Charge or Current Charge


@<TRIPOS>ATOM
      1 O4           0.0520    -2.5340     1.1270 o          1 HS6      -0.523500
      2 S1           0.1510    -1.9280    -0.2020 sy         1 HS6       1.159600
      3 O3           0.3430    -2.7130    -1.4220 o          1 HS6      -0.523500
      4 N1          -1.2800    -1.1020    -0.4320 n7         1 HS6      -0.854300
      5 C6          -1.5200     0.1560     0.3560 c3         1 HS6       0.112800
      6 C8          -2.9550     0.7400     0.2270 c          1 HS6       0.564500
      7 O2          -3.9070     0.0790    -0.1800 o          1 HS6      -0.435100
      8 N2          -3.0140     2.0740     0.6350 ne         1 HS6      -0.056100
      9 O1          -3.9780     2.8540     0.6730 o          1 HS6      -0.077300
     10 C3           1.3360    -0.5740    -0.1850 ca         1 HS6      -0.341500
     11 C1           1.8750    -0.1140     1.0350 ca         1 HS6       0.011000
     12 C5           1.7170     0.0320    -1.4000 ca         1 HS6       0.011000
     13 C7           2.6350     1.0960    -1.3910 ca         1 HS6      -0.174500
     14 C4           3.1690     1.5500    -0.1770 ca         1 HS6       0.232000
     15 F1           4.0510     2.5730    -0.1730 f          1 HS6      -0.164000
     16 C2           2.7930     0.9510     1.0330 ca         1 HS6      -0.174500
     17 HN1         -1.9550    -1.8160    -0.1580 hn         1 HS6       0.493000
     18 H6          -1.3480    -0.0070     1.4290 h1         1 HS6       0.086700
     19 H6A         -0.8270     0.9480     0.0380 h1         1 HS6       0.086700
     20 H1           1.5890    -0.5720     1.9810 ha         1 HS6       0.141000
     21 H5           1.3020    -0.3120    -2.3470 ha         1 HS6       0.141000
     22 H7           2.9330     1.5690    -2.3230 ha         1 HS6       0.142000
     23 H2           3.2130     1.3110     1.9680 ha         1 HS6       0.142000
@<TRIPOS>BOND
     1     1     2 2   
     2     2     3 2   
     3     2     4 1   
     4     2    10 1   
     5     4     5 1   
     6     4    17 1   
     7     5     6 1   
     8     5    18 1   
     9     5    19 1   
    10     6     7 2   
    11     6     8 1   
    12     8     9 2   
    13    10    11 ar  
    14    10    12 ar  
    15    11    16 ar  
    16    11    20 1   
    17    12    13 ar  
    18    12    21 1   
    19    13    14 ar  
    20    13    22 1   
    21    14    15 1   
    22    14    16 ar  
    23    16    23 1   
@<TRIPOS>SUBSTRUCTURE
     1 HS6         1 TEMP              0 ****  ****    0 ROOT
