@<TRIPOS>MOLECULE
HS7
   23    23     1     0     0
SMALL
No Charge or Current Charge


@<TRIPOS>ATOM
      1 O3           3.5760    -0.3840     0.1800 o          1 HS7      -0.434100
      2 C7           2.7450     0.4120    -0.2500 c          1 HS7       0.564500
      3 N2           3.0250     1.7020    -0.7060 ne         1 HS7      -0.057100
      4 O4           4.1070     2.3070    -0.7740 o          1 HS7      -0.079300
      5 C8           1.2310     0.0750    -0.3570 c3         1 HS7       0.120800
      6 N1           0.7860    -1.0960     0.4760 n7         1 HS7      -0.862300
      7 S1          -0.7650    -1.6760     0.2710 sy         1 HS7       1.160600
      8 O1          -0.7630    -2.3600    -1.0230 o          1 HS7      -0.526000
      9 O2          -1.0900    -2.3530     1.5290 o          1 HS7      -0.526000
     10 C3          -1.7060    -0.1430     0.1680 ca         1 HS7      -0.318500
     11 C1          -2.1440     0.3450    -1.0820 ca         1 HS7      -0.017000
     12 C6          -1.9980     0.5810     1.3440 ca         1 HS7      -0.017000
     13 C5          -2.7230     1.7830     1.2670 ca         1 HS7      -0.128500
     14 C4          -3.1590     2.2670     0.0220 ca         1 HS7      -0.052000
     15 C2          -2.8690     1.5480    -1.1500 ca         1 HS7      -0.128500
     16 H8           0.6840     0.9830    -0.0670 h1         1 HS7       0.085200
     17 H8A          1.0270    -0.0950    -1.4230 h1         1 HS7       0.085200
     18 HN1          1.3290    -1.9240     0.2260 hn         1 HS7       0.494000
     19 H1          -1.9270    -0.1990    -2.0000 ha         1 HS7       0.136000
     20 H6          -1.6600     0.2190     2.3140 ha         1 HS7       0.136000
     21 H5          -2.9450     2.3400     2.1740 ha         1 HS7       0.122500
     22 H4          -3.7190     3.1980    -0.0340 ha         1 HS7       0.120000
     23 H2          -3.2060     1.9230    -2.1140 ha         1 HS7       0.122500
@<TRIPOS>BOND
     1     1     2 2   
     2     2     3 1   
     3     2     5 1   
     4     3     4 2   
     5     5     6 1   
     6     5    16 1   
     7     5    17 1   
     8     6     7 1   
     9     6    18 1   
    10     7     8 2   
    11     7     9 2   
    12     7    10 1   
    13    10    11 ar  
    14    10    12 ar  
    15    11    15 ar  
    16    11    19 1   
    17    12    13 ar  
    18    12    20 1   
    19    13    14 ar  
    20    13    21 1   
    21    14    15 ar  
    22    14    22 1   
    23    15    23 1   
@<TRIPOS>SUBSTRUCTURE
     1 HS7         1 TEMP              0 ****  ****    0 ROOT
