@<TRIPOS>MOLECULE
HS7
   23    23     1     0     0
SMALL
abcg2


@<TRIPOS>ATOM
      1 O3           3.4380    -0.3800    -1.0790 o          1 HS7      -0.434100
      2 C7           2.9190     0.3150    -0.2670 c          1 HS7       0.564500
      3 N2           3.6520     1.4710     0.3720 ne         1 HS7      -0.057100
      4 O4           4.8260     1.3300     0.2980 o          1 HS7      -0.079300
      5 C8           1.5040     0.2640     0.2090 c3         1 HS7       0.120800
      6 N1           0.8260    -0.8700    -0.3620 n7         1 HS7      -0.862300
      7 S1          -0.5930    -1.3950     0.3070 sy         1 HS7       1.160600
      8 O1          -1.0010    -2.5260    -0.5050 o          1 HS7      -0.526000
      9 O2          -0.3480    -1.5420     1.7290 o          1 HS7      -0.526000
     10 C3          -1.7640    -0.0880     0.0810 ca         1 HS7      -0.318500
     11 C1          -2.4960    -0.0330    -1.0990 ca         1 HS7      -0.017000
     12 C6          -1.9100     0.8770     1.0680 ca         1 HS7      -0.017000
     13 C5          -2.8010     1.9200     0.8620 ca         1 HS7      -0.128500
     14 C4          -3.5350     1.9870    -0.3130 ca         1 HS7      -0.052000
     15 C2          -3.3850     1.0120    -1.2900 ca         1 HS7      -0.128500
     16 H8           1.5180     0.1990     1.3000 h1         1 HS7       0.085200
     17 H8A          1.0460     1.2320    -0.0380 h1         1 HS7       0.085200
     18 HN1          0.8060    -0.8800    -1.3750 hn         1 HS7       0.494000
     19 H1          -2.3890    -0.7950    -1.8590 ha         1 HS7       0.136000
     20 H6          -1.3530     0.8210     1.9930 ha         1 HS7       0.136000
     21 H5          -2.9260     2.6740     1.6260 ha         1 HS7       0.122500
     22 H4          -4.2320     2.7990    -0.4670 ha         1 HS7       0.120000
     23 H2          -3.9640     1.0600    -2.2010 ha         1 HS7       0.122500
@<TRIPOS>BOND
     1     1     2 2   
     2     2     3 1   
     3     2     5 1   
     4     3     4 2   
     5     5     6 1   
     6     5    16 1   
     7     5    17 1   
     8     6     7 1   
     9     6    18 1   
    10     7     8 2   
    11     7     9 2   
    12     7    10 1   
    13    10    11 ar  
    14    10    12 ar  
    15    11    15 ar  
    16    11    19 1   
    17    12    13 ar  
    18    12    20 1   
    19    13    14 ar  
    20    13    21 1   
    21    14    15 ar  
    22    14    22 1   
    23    15    23 1   
@<TRIPOS>SUBSTRUCTURE
     1 HS7         1 TEMP              0 ****  ****    0 ROOT
