@<TRIPOS>MOLECULE
HS8
   23    23     1     0     0
SMALL
bcc


@<TRIPOS>ATOM
      1 N          -20.7120    33.2490     6.5420 n8         1 HS8      -0.927800
      2 CA         -19.4590    33.9790     6.7410 c3         1 HS8      -0.004500
      3 CB         -18.8290    33.5650     8.0790 c3         1 HS8      -0.003100
      4 CG         -19.7210    33.8190     9.2440 cc         1 HS8      -0.092600
      5 ND1        -21.0750    33.6190     9.1570 na         1 HS8      -0.145100
      6 CE1        -21.6500    33.9070    10.3090 cc         1 HS8      -0.033600
      7 NE2        -20.7010    34.2840    11.1550 na         1 HS8      -0.083600
      8 CD2        -19.4850    34.2420    10.5130 cd         1 HS8      -0.125300
      9 C          -18.4150    33.8300     5.5990 c          1 HS8       0.915600
     10 O          -18.7220    33.1030     4.6380 o          1 HS8      -0.818300
     11 O3         -20.1110    33.8330    13.5770 o          1 HS8      -0.650533
     12 S          -20.9430    34.7880    12.8670 s6         1 HS8       1.353800
     13 O1         -20.4500    36.1520    12.8420 o          1 HS8      -0.650533
     14 O2         -22.3800    34.6190    13.0000 o          1 HS8      -0.650533
     15 OXT        -17.3550    34.4650     5.7660 o          1 HS8      -0.818300
     16 H          -21.2200    33.6580     5.7680 hn         1 HS8       0.353800
     17 H2         -20.4940    32.3040     6.2450 hn         1 HS8       0.353800
     18 HA         -19.7150    35.0420     6.8120 h1         1 HS8       0.050700
     19 HB2        -18.5790    32.4990     8.0430 hc         1 HS8       0.077200
     20 HB3        -17.8940    34.1000     8.2280 hc         1 HS8       0.077200
     21 HD2        -18.5640    34.5120    11.0010 h4         1 HS8       0.210000
     22 HD1        -21.4660    33.3590     8.2290 hn         1 HS8       0.378700
     23 HE1        -22.7040    33.8470    10.5220 h5         1 HS8       0.234000
@<TRIPOS>BOND
     1     1     2 1   
     2     1    16 1   
     3     1    17 1   
     4     2     3 1   
     5     2     9 1   
     6     2    18 1   
     7     3     4 1   
     8     3    19 1   
     9     3    20 1   
    10     4     5 1   
    11     4     8 2   
    12     5     6 2   
    13     5    22 1   
    14     6     7 1   
    15     6    23 1   
    16     7     8 1   
    17     7    12 1   
    18     8    21 1   
    19     9    10 1   
    20     9    15 1   
    21    11    12 1   
    22    12    13 1   
    23    12    14 1   
@<TRIPOS>SUBSTRUCTURE
     1 HS8         1 TEMP              0 ****  ****    0 ROOT
