@<TRIPOS>MOLECULE
HS8
   23    23     1     0     0
SMALL
No Charge or Current Charge


@<TRIPOS>ATOM
      1 N          -20.7500    33.3550     6.2790 n8         1 HS8      -0.927800
      2 CA         -19.4170    33.9490     6.7070 c3         1 HS8      -0.004500
      3 CB         -18.9600    33.3750     8.0790 c3         1 HS8      -0.003100
      4 CG         -19.8540    33.7320     9.2440 cc         1 HS8      -0.092600
      5 ND1        -21.2430    33.7820     9.1680 na         1 HS8      -0.145100
      6 CE1        -21.7560    34.1350    10.4030 cc         1 HS8      -0.033600
      7 NE2        -20.6740    34.3010    11.2340 na         1 HS8      -0.083600
      8 CD2        -19.5000    34.0600    10.5380 cd         1 HS8      -0.125300
      9 C          -18.2230    33.8540     5.6630 c          1 HS8       0.915600
     10 O          -17.9400    32.7560     5.1930 o          1 HS8      -0.818300
     11 O3         -19.5140    34.4560    13.4800 o          1 HS8      -0.650533
     12 S          -20.8340    34.7590    12.9010 s6         1 HS8       1.353800
     13 O1         -21.1570    36.1920    12.8030 o          1 HS8      -0.650533
     14 O2         -21.9610    33.9330    13.3680 o          1 HS8      -0.650533
     15 OXT        -17.6960    34.8930     5.2790 o          1 HS8      -0.818300
     16 H          -21.0610    33.8140     5.4140 hn         1 HS8       0.353800
     17 H2         -20.5960    32.3810     5.9870 hn         1 HS8       0.353800
     18 HA         -19.5890    35.0230     6.8580 h1         1 HS8       0.050700
     19 HB2        -18.8700    32.2840     8.0040 hc         1 HS8       0.077200
     20 HB3        -17.9490    33.7450     8.2900 hc         1 HS8       0.077200
     21 HD2        -18.5200    34.1330    11.0010 h4         1 HS8       0.210000
     22 HD1        -21.7760    33.6030     8.3180 hn         1 HS8       0.378700
     23 HE1        -22.8020    34.2610    10.6670 h5         1 HS8       0.234000
@<TRIPOS>BOND
     1     1     2 1   
     2     1    16 1   
     3     1    17 1   
     4     2     3 1   
     5     2     9 1   
     6     2    18 1   
     7     3     4 1   
     8     3    19 1   
     9     3    20 1   
    10     4     5 1   
    11     4     8 2   
    12     5     6 2   
    13     5    22 1   
    14     6     7 1   
    15     6    23 1   
    16     7     8 1   
    17     7    12 1   
    18     8    21 1   
    19     9    10 1   
    20     9    15 1   
    21    11    12 1   
    22    12    13 1   
    23    12    14 1   
@<TRIPOS>SUBSTRUCTURE
     1 HS8         1 TEMP              0 ****  ****    0 ROOT
