@<TRIPOS>MOLECULE
HS9
   24    24     1     0     0
SMALL
No Charge or Current Charge


@<TRIPOS>ATOM
      1 N           -7.0290    12.7370   -14.9520 n7         1 HS9      -0.882400
      2 CA          -6.4050    13.9330   -15.6280 c3         1 HS9       0.084500
      3 CB          -7.3070    14.4180   -16.7970 c3         1 HS9      -0.097700
      4 CG          -6.6370    15.4260   -17.6930 cc         1 HS9       0.251300
      5 ND1         -5.5240    15.1000   -18.4160 nc         1 HS9      -0.689000
      6 CD2         -7.0140    16.7200   -17.9240 cd         1 HS9      -0.208000
      7 CE1         -5.1900    16.1870   -19.0990 cd         1 HS9       0.390400
      8 NE2         -6.0800    17.2080   -18.8250 na         1 HS9      -0.300500
      9 C           -5.9940    15.0820   -14.6350 c          1 HS9       0.606100
     10 O           -6.4260    16.2260   -14.6670 o          1 HS9      -0.614100
     11 NXT         -5.1100    14.7290   -13.6740 nt         1 HS9      -0.600000
     12 CM          -8.2580    12.9780   -14.1620 c3         1 HS9       0.141100
     13 HA          -5.4550    13.6130   -16.0790 h1         1 HS9       0.098700
     14 HM1C        -8.0850    13.7250   -13.3760 h1         1 HS9       0.032367
     15 HM2C        -9.0780    13.3350   -14.8000 h1         1 HS9       0.032367
     16 HM3C        -8.5900    12.0510   -13.6770 h1         1 HS9       0.032367
     17 H           -7.2370    12.0250   -15.6660 hn         1 HS9       0.423000
     18 HB1C        -7.6080    13.5550   -17.4040 hc         1 HS9       0.048200
     19 HB2C        -8.2310    14.8500   -16.3950 hc         1 HS9       0.048200
     20 HXT1        -4.8020    13.7700   -13.6160 hn         1 HS9       0.319000
     21 HXT2        -4.8190    15.4110   -12.9900 hn         1 HS9       0.319000
     22 HD2         -7.8390    17.3000   -17.5250 h4         1 HS9       0.159000
     23 HE1         -4.3560    16.3050   -19.7820 h5         1 HS9       0.052100
     24 HE2         -6.0400    18.1390   -19.2250 hn         1 HS9       0.352000
@<TRIPOS>BOND
     1     1     2 1   
     2     1    12 1   
     3     1    17 1   
     4     2     3 1   
     5     2     9 1   
     6     2    13 1   
     7     3     4 1   
     8     3    18 1   
     9     3    19 1   
    10     4     5 1   
    11     4     6 2   
    12     5     7 2   
    13     6     8 1   
    14     6    22 1   
    15     7     8 1   
    16     7    23 1   
    17     8    24 1   
    18     9    10 2   
    19     9    11 1   
    20    11    20 1   
    21    11    21 1   
    22    12    14 1   
    23    12    15 1   
    24    12    16 1   
@<TRIPOS>SUBSTRUCTURE
     1 HS9         1 TEMP              0 ****  ****    0 ROOT
