@<TRIPOS>MOLECULE
HS9
   24    24     1     0     0
SMALL
bcc


@<TRIPOS>ATOM
      1 N           -6.8110    12.8370   -14.9430 n7         1 HS9      -0.827200
      2 CA          -6.3530    14.0530   -15.5920 c3         1 HS9       0.084500
      3 CB          -7.3320    14.6720   -16.6030 c3         1 HS9      -0.097700
      4 CG          -6.6810    15.5400   -17.6290 cc         1 HS9       0.316600
      5 ND1         -5.5830    15.1270   -18.3340 nc         1 HS9      -0.689000
      6 CD2         -7.0620    16.7800   -18.0590 cd         1 HS9      -0.240600
      7 CE1         -5.3060    16.0980   -19.1680 cd         1 HS9       0.390400
      8 NE2         -6.1730    17.1180   -19.0400 na         1 HS9      -0.300900
      9 C           -5.8830    15.0650   -14.5430 c          1 HS9       0.673100
     10 O           -5.9660    16.2720   -14.7100 o          1 HS9      -0.614100
     11 NXT         -5.3260    14.5040   -13.4600 nt         1 HS9      -0.667000
     12 CM          -8.1200    12.9220   -14.3220 c3         1 HS9       0.141100
     13 HA          -5.4510    13.7730   -16.1480 h1         1 HS9       0.098700
     14 HM1C        -8.1170    13.6820   -13.5390 h1         1 HS9       0.032367
     15 HM2C        -8.9400    13.1570   -15.0110 h1         1 HS9       0.032367
     16 HM3C        -8.3520    11.9690   -13.8460 h1         1 HS9       0.032367
     17 H           -6.7980    12.0780   -15.6100 hn         1 HS9       0.367800
     18 HB1C        -7.8250    13.8390   -17.1160 hc         1 HS9       0.048200
     19 HB2C        -8.1220    15.2320   -16.1000 hc         1 HS9       0.048200
     20 HXT1        -5.3860    13.5070   -13.3370 hn         1 HS9       0.319000
     21 HXT2        -5.0050    15.0750   -12.6960 hn         1 HS9       0.319000
     22 HD2         -7.8620    17.4330   -17.7530 h4         1 HS9       0.177000
     23 HE1         -4.4940    16.1130   -19.8790 h5         1 HS9       0.052100
     24 HE2         -6.1640    17.9760   -19.5690 hn         1 HS9       0.301700
@<TRIPOS>BOND
     1     1     2 1   
     2     1    12 1   
     3     1    17 1   
     4     2     3 1   
     5     2     9 1   
     6     2    13 1   
     7     3     4 1   
     8     3    18 1   
     9     3    19 1   
    10     4     5 1   
    11     4     6 2   
    12     5     7 2   
    13     6     8 1   
    14     6    22 1   
    15     7     8 1   
    16     7    23 1   
    17     8    24 1   
    18     9    10 2   
    19     9    11 1   
    20    11    20 1   
    21    11    21 1   
    22    12    14 1   
    23    12    15 1   
    24    12    16 1   
@<TRIPOS>SUBSTRUCTURE
     1 HS9         1 TEMP              0 ****  ****    0 ROOT
