@<TRIPOS>MOLECULE
HSD
   25    25     1     0     0
SMALL
No Charge or Current Charge


@<TRIPOS>ATOM
      1 N1           1.1130     2.7980     0.0220 n8         1 HSD      -1.010200
      2 C1           0.7580     1.4280    -0.4140 c6         1 HSD       0.143700
      3 C2          -0.7300     1.1660    -0.3410 c2         1 HSD      -0.220200
      4 C3          -1.2580    -0.0520    -0.0910 c2         1 HSD      -0.138400
      5 C4          -2.7620    -0.2710     0.0160 c3         1 HSD       0.202800
      6 O1          -3.3300     0.6540     0.9500 oh         1 HSD      -0.660000
      7 C5          -0.3710    -1.2850     0.1820 c6         1 HSD       0.165500
      8 O2          -0.8160    -2.4300    -0.5700 oh         1 HSD      -0.724000
      9 C6           1.1520    -1.0420    -0.1070 c6         1 HSD       0.177300
     10 O3           1.9330    -2.0980     0.4920 oh         1 HSD      -0.637000
     11 C7           1.5590     0.3750     0.4000 c6         1 HSD       0.189300
     12 O4           2.9500     0.6950     0.2360 oh         1 HSD      -0.698000
     13 H1           0.6350     3.4760    -0.5850 hn         1 HSD       0.405000
     14 H2           0.6880     2.9710     0.9430 hn         1 HSD       0.405000
     15 H3           1.0610     1.3370    -1.4710 h1         1 HSD       0.080700
     16 H4          -1.3840     2.0230    -0.5090 ha         1 HSD       0.195000
     17 H5          -3.2150    -0.1340    -0.9760 h1         1 HSD       0.027200
     18 H6          -2.9840    -1.2970     0.3380 h1         1 HSD       0.027200
     19 H7          -4.2980     0.4840     0.9630 ho         1 HSD       0.449000
     20 H8          -0.4610    -1.5000     1.2580 h1         1 HSD       0.050700
     21 H9          -1.6370    -2.7610    -0.1380 ho         1 HSD       0.505000
     22 H10          1.2940    -1.0560    -1.1980 h1         1 HSD       0.055700
     23 H11          1.5000    -2.9320     0.2040 ho         1 HSD       0.449000
     24 H12          1.2800     0.4620     1.4610 h1         1 HSD       0.037700
     25 H13          2.9150     1.6810     0.1410 ho         1 HSD       0.522000
@<TRIPOS>BOND
     1     1     2 1   
     2     1    13 1   
     3     1    14 1   
     4     2     3 1   
     5     2    11 1   
     6     2    15 1   
     7     3     4 2   
     8     3    16 1   
     9     4     5 1   
    10     4     7 1   
    11     5     6 1   
    12     5    17 1   
    13     5    18 1   
    14     6    19 1   
    15     7     8 1   
    16     7     9 1   
    17     7    20 1   
    18     8    21 1   
    19     9    10 1   
    20     9    11 1   
    21     9    22 1   
    22    10    23 1   
    23    11    12 1   
    24    11    24 1   
    25    12    25 1   
@<TRIPOS>SUBSTRUCTURE
     1 HSD         1 TEMP              0 ****  ****    0 ROOT
