@<TRIPOS>MOLECULE
HSD
   25    25     1     0     0
SMALL
bcc


@<TRIPOS>ATOM
      1 N1           1.1210     2.7350     0.2220 n8         1 HSD      -0.899800
      2 C1           0.6880     1.4670    -0.3520 c6         1 HSD       0.143700
      3 C2          -0.7810     1.1750    -0.2270 c2         1 HSD      -0.170200
      4 C3          -1.2760    -0.0340     0.0250 c2         1 HSD      -0.138400
      5 C4          -2.7430    -0.3070     0.1750 c3         1 HSD       0.179600
      6 O1          -3.4800     0.8870     0.1380 oh         1 HSD      -0.597800
      7 C5          -0.3790    -1.2310     0.2450 c6         1 HSD       0.142300
      8 O2          -0.8590    -2.3830    -0.4300 oh         1 HSD      -0.601800
      9 C6           1.0460    -0.9830    -0.2440 c6         1 HSD       0.154100
     10 O3           1.9180    -1.9910     0.2030 oh         1 HSD      -0.574800
     11 C7           1.5240     0.3570     0.2770 c6         1 HSD       0.166100
     12 O4           2.8860     0.5360    -0.0160 oh         1 HSD      -0.575800
     13 H1           0.7730     3.5080    -0.3300 hn         1 HSD       0.349800
     14 H2           0.7330     2.8490     1.1510 hn         1 HSD       0.349800
     15 H3           0.9450     1.5120    -1.4180 h1         1 HSD       0.080700
     16 H4          -1.4480     2.0200    -0.3580 ha         1 HSD       0.145000
     17 H5          -3.0590    -0.9980    -0.6170 h1         1 HSD       0.027200
     18 H6          -2.8970    -0.8450     1.1250 h1         1 HSD       0.027200
     19 H7          -4.4130     0.6590     0.1200 ho         1 HSD       0.410000
     20 H8          -0.3330    -1.4290     1.3260 h1         1 HSD       0.050700
     21 H9          -1.3940    -2.9030     0.1750 ho         1 HSD       0.406000
     22 H10          1.0290    -0.9430    -1.3460 h1         1 HSD       0.055700
     23 H11          1.5810    -2.8330    -0.1220 ho         1 HSD       0.410000
     24 H12          1.3580     0.3860     1.3690 h1         1 HSD       0.037700
     25 H13          3.0500     1.4800     0.1150 ho         1 HSD       0.423000
@<TRIPOS>BOND
     1     1     2 1   
     2     1    13 1   
     3     1    14 1   
     4     2     3 1   
     5     2    11 1   
     6     2    15 1   
     7     3     4 2   
     8     3    16 1   
     9     4     5 1   
    10     4     7 1   
    11     5     6 1   
    12     5    17 1   
    13     5    18 1   
    14     6    19 1   
    15     7     8 1   
    16     7     9 1   
    17     7    20 1   
    18     8    21 1   
    19     9    10 1   
    20     9    11 1   
    21     9    22 1   
    22    10    23 1   
    23    11    12 1   
    24    11    24 1   
    25    12    25 1   
@<TRIPOS>SUBSTRUCTURE
     1 HSD         1 TEMP              0 ****  ****    0 ROOT
