@<TRIPOS>MOLECULE
HSE
   16    15     1     0     0
SMALL
abcg2


@<TRIPOS>ATOM
      1 NA           1.7830     0.3890     0.2890 n8         1 HSE      -0.989200
      2 C1           0.3320     0.4960     0.2990 c3         1 HSE       0.020500
      3 C2          -0.2470    -0.0630     1.6180 c          1 HSE       0.726000
      4 C3          -0.3860    -0.1980    -0.8710 c3         1 HSE      -0.106400
      5 O1           0.4620    -0.8590     2.2640 o          1 HSE      -0.730000
      6 O2          -1.4050     0.3020     1.9060 o          1 HSE      -0.730000
      7 C4           0.0040     0.3550    -2.2280 c3         1 HSE       0.152600
      8 O3          -0.7610    -0.2910    -3.2250 oh         1 HSE      -0.667000
      9 HN1          2.1550     0.6220    -0.6230 hn         1 HSE       0.373000
     10 HN2          2.0430    -0.5710     0.4750 hn         1 HSE       0.373000
     11 H1           0.0770     1.5620     0.2500 h1         1 HSE       0.040700
     12 H31         -0.1740    -1.2730    -0.8380 hc         1 HSE       0.057200
     13 H32         -1.4650    -0.0750    -0.7400 hc         1 HSE       0.057200
     14 H41         -0.1640     1.4410    -2.2350 h1         1 HSE       0.002700
     15 H42          1.0770     0.2000    -2.4020 h1         1 HSE       0.002700
     16 HO3         -0.4750     0.0390    -4.0820 ho         1 HSE       0.417000
@<TRIPOS>BOND
     1     1     2 1   
     2     1     9 1   
     3     1    10 1   
     4     2     3 1   
     5     2     4 1   
     6     2    11 1   
     7     3     5 1   
     8     3     6 1   
     9     4     7 1   
    10     4    12 1   
    11     4    13 1   
    12     7     8 1   
    13     7    14 1   
    14     7    15 1   
    15     8    16 1   
@<TRIPOS>SUBSTRUCTURE
     1 HSE         1 TEMP              0 ****  ****    0 ROOT
