@<TRIPOS>MOLECULE
HSE
   16    15     1     0     0
SMALL
No Charge or Current Charge


@<TRIPOS>ATOM
      1 NA           1.8150     0.4400     0.2700 n8         1 HSE      -0.989200
      2 C1           0.3080     0.4730     0.3330 c3         1 HSE       0.020500
      3 C2          -0.3530    -0.0180     1.6900 c          1 HSE       0.726000
      4 C3          -0.2990    -0.2860    -0.8780 c3         1 HSE      -0.106400
      5 O1          -0.1280    -1.1610     2.0720 o          1 HSE      -0.730000
      6 O2          -1.0120     0.7850     2.3400 o          1 HSE      -0.730000
      7 C4          -0.0070     0.3660    -2.2470 c3         1 HSE       0.152600
      8 O3          -0.6610    -0.3720    -3.2810 oh         1 HSE      -0.667000
      9 HN1          2.1200     0.6270    -0.6920 hn         1 HSE       0.373000
     10 HN2          2.1310    -0.5210     0.4500 hn         1 HSE       0.373000
     11 H1           0.0150     1.5270     0.2220 h1         1 HSE       0.040700
     12 H31          0.0570    -1.3230    -0.8800 hc         1 HSE       0.057200
     13 H32         -1.3870    -0.3300    -0.7470 hc         1 HSE       0.057200
     14 H41         -0.3670     1.4030    -2.2390 h1         1 HSE       0.002700
     15 H42          1.0760     0.3840    -2.4270 h1         1 HSE       0.002700
     16 HO3         -0.4530     0.0800    -4.1280 ho         1 HSE       0.417000
@<TRIPOS>BOND
     1     1     2 1   
     2     1     9 1   
     3     1    10 1   
     4     2     3 1   
     5     2     4 1   
     6     2    11 1   
     7     3     5 1   
     8     3     6 1   
     9     4     7 1   
    10     4    12 1   
    11     4    13 1   
    12     7     8 1   
    13     7    14 1   
    14     7    15 1   
    15     8    16 1   
@<TRIPOS>SUBSTRUCTURE
     1 HSE         1 TEMP              0 ****  ****    0 ROOT
