@<TRIPOS>MOLECULE
HSF
   53    52     1     0     0
SMALL
abcg2


@<TRIPOS>ATOM
      1 C1           0.7770     0.0080    -6.4820 c3         1 HSF      -0.353400
      2 C2          -0.1660     0.0100    -5.2840 c3         1 HSF      -0.052400
      3 C3           0.6390    -0.0030    -3.9890 c3         1 HSF      -0.069400
      4 C4          -0.2470    -0.0010    -2.7510 c3         1 HSF      -0.076400
      5 C5           0.5580    -0.0150    -1.4570 c3         1 HSF      -0.074400
      6 C6          -0.3100    -0.0130    -0.2050 c3         1 HSF      -0.074400
      7 C7           0.5040    -0.0290     1.0830 c3         1 HSF      -0.074400
      8 C8          -0.3520    -0.0120     2.3430 c3         1 HSF      -0.074400
      9 C9           0.4700    -0.0280     3.6260 c3         1 HSF      -0.074400
     10 C10         -0.3810    -0.0120     4.8890 c3         1 HSF      -0.074400
     11 C11          0.4450    -0.0240     6.1700 c3         1 HSF      -0.074400
     12 C12         -0.4040    -0.0090     7.4350 c3         1 HSF      -0.074400
     13 C13          0.4210    -0.0190     8.7160 c3         1 HSF      -0.074400
     14 C14         -0.4300    -0.0040     9.9790 c3         1 HSF      -0.075400
     15 C15          0.3910    -0.0130    11.2630 c3         1 HSF      -0.074400
     16 C16         -0.4760     0.0030    12.5150 c3         1 HSF      -0.089100
     17 S1          -0.1340     0.0260    -8.0050 s6         1 HSF       1.358900
     18 O1S         -0.8360    -1.2140    -8.2170 o          1 HSF      -0.528000
     19 O2S         -0.8100     1.2830    -8.2050 o          1 HSF      -0.528000
     20 F            1.0970     0.0190    -9.0350 f          1 HSF      -0.264900
     21 H11          1.4190     0.8900    -6.4920 h1         1 HSF       0.108700
     22 H12          1.4010    -0.8860    -6.5030 h1         1 HSF       0.108700
     23 H21         -0.8190    -0.8650    -5.3200 hc         1 HSF       0.058700
     24 H22         -0.8040     0.8960    -5.3110 hc         1 HSF       0.058700
     25 H31          1.3020     0.8680    -3.9650 hc         1 HSF       0.043700
     26 H32          1.2870    -0.8850    -3.9730 hc         1 HSF       0.043700
     27 H41         -0.9130    -0.8710    -2.7770 hc         1 HSF       0.041700
     28 H42         -0.8960     0.8810    -2.7680 hc         1 HSF       0.041700
     29 H51          1.2240     0.8550    -1.4370 hc         1 HSF       0.038200
     30 H52          1.2090    -0.8960    -1.4450 hc         1 HSF       0.038200
     31 H61         -0.9790    -0.8810    -0.2240 hc         1 HSF       0.038700
     32 H62         -0.9600     0.8700    -0.2140 hc         1 HSF       0.038700
     33 H71          1.1820     0.8330     1.0940 hc         1 HSF       0.037700
     34 H72          1.1470    -0.9170     1.0940 hc         1 HSF       0.037700
     35 H81         -1.0300    -0.8730     2.3330 hc         1 HSF       0.037700
     36 H82         -0.9940     0.8770     2.3340 hc         1 HSF       0.037700
     37 H91          1.1450     0.8350     3.6330 hc         1 HSF       0.037200
     38 H92          1.1130    -0.9150     3.6320 hc         1 HSF       0.037200
     39 H101        -1.0550    -0.8760     4.8840 hc         1 HSF       0.037700
     40 H102        -1.0250     0.8740     4.8820 hc         1 HSF       0.037700
     41 H111         1.1170     0.8420     6.1750 hc         1 HSF       0.037200
     42 H112         1.0920    -0.9090     6.1770 hc         1 HSF       0.037200
     43 H121        -1.0770    -0.8740     7.4300 hc         1 HSF       0.036700
     44 H122        -1.0500     0.8760     7.4270 hc         1 HSF       0.036700
     45 H131         1.0940     0.8460     8.7200 hc         1 HSF       0.036700
     46 H132         1.0680    -0.9040     8.7240 hc         1 HSF       0.036700
     47 H141        -1.1030    -0.8690     9.9740 hc         1 HSF       0.036700
     48 H142        -1.0770     0.8810     9.9700 hc         1 HSF       0.036700
     49 H151         1.0610     0.8520    11.2700 hc         1 HSF       0.036700
     50 H152         1.0360    -0.8960    11.2740 hc         1 HSF       0.036700
     51 H161         0.1260    -0.0040    13.4240 hc         1 HSF       0.031367
     52 H162        -1.1080     0.8920    12.5430 hc         1 HSF       0.031367
     53 H163        -1.1340    -0.8680    12.5470 hc         1 HSF       0.031367
@<TRIPOS>BOND
     1     1     2 1   
     2     1    17 1   
     3     1    21 1   
     4     1    22 1   
     5     2     3 1   
     6     2    23 1   
     7     2    24 1   
     8     3     4 1   
     9     3    25 1   
    10     3    26 1   
    11     4     5 1   
    12     4    27 1   
    13     4    28 1   
    14     5     6 1   
    15     5    29 1   
    16     5    30 1   
    17     6     7 1   
    18     6    31 1   
    19     6    32 1   
    20     7     8 1   
    21     7    33 1   
    22     7    34 1   
    23     8     9 1   
    24     8    35 1   
    25     8    36 1   
    26     9    10 1   
    27     9    37 1   
    28     9    38 1   
    29    10    11 1   
    30    10    39 1   
    31    10    40 1   
    32    11    12 1   
    33    11    41 1   
    34    11    42 1   
    35    12    13 1   
    36    12    43 1   
    37    12    44 1   
    38    13    14 1   
    39    13    45 1   
    40    13    46 1   
    41    14    15 1   
    42    14    47 1   
    43    14    48 1   
    44    15    16 1   
    45    15    49 1   
    46    15    50 1   
    47    16    51 1   
    48    16    52 1   
    49    16    53 1   
    50    17    18 2   
    51    17    19 2   
    52    17    20 1   
@<TRIPOS>SUBSTRUCTURE
     1 HSF         1 TEMP              0 ****  ****    0 ROOT
