@<TRIPOS>MOLECULE
HSF
   53    52     1     0     0
SMALL
No Charge or Current Charge


@<TRIPOS>ATOM
      1 C1           0.7290    -0.0040    -6.6420 c3         1 HSF      -0.353400
      2 C2          -0.1700     0.0070    -5.3780 c3         1 HSF      -0.052400
      3 C3           0.6550    -0.0070    -4.0740 c3         1 HSF      -0.069400
      4 C4          -0.2220     0.0040    -2.8020 c3         1 HSF      -0.076400
      5 C5           0.6050    -0.0100    -1.4980 c3         1 HSF      -0.074400
      6 C6          -0.2710     0.0010    -0.2260 c3         1 HSF      -0.074400
      7 C7           0.5560    -0.0120     1.0780 c3         1 HSF      -0.074400
      8 C8          -0.3200    -0.0020     2.3500 c3         1 HSF      -0.074400
      9 C9           0.5070    -0.0150     3.6540 c3         1 HSF      -0.074400
     10 C10         -0.3690    -0.0040     4.9260 c3         1 HSF      -0.074400
     11 C11          0.4580    -0.0170     6.2300 c3         1 HSF      -0.074400
     12 C12         -0.4180    -0.0070     7.5010 c3         1 HSF      -0.074400
     13 C13          0.4090    -0.0200     8.8060 c3         1 HSF      -0.074400
     14 C14         -0.4680    -0.0100    10.0770 c3         1 HSF      -0.075400
     15 C15          0.3590    -0.0230    11.3820 c3         1 HSF      -0.074400
     16 C16         -0.5150    -0.0130    12.6500 c3         1 HSF      -0.089100
     17 S1          -0.1930     0.0120    -8.2010 s6         1 HSF       1.358900
     18 O1S         -0.9170    -1.2590    -8.3620 o          1 HSF      -0.528000
     19 O2S         -0.8800     1.3030    -8.3580 o          1 HSF      -0.528000
     20 F            1.0720    -0.0050    -9.2470 f          1 HSF      -0.264900
     21 H11          1.3730     0.8810    -6.6690 h1         1 HSF       0.108700
     22 H12          1.3480    -0.9070    -6.6720 h1         1 HSF       0.108700
     23 H21         -0.8360    -0.8670    -5.3900 hc         1 HSF       0.058700
     24 H22         -0.8110     0.8990    -5.3870 hc         1 HSF       0.058700
     25 H31          1.3200     0.8650    -4.0600 hc         1 HSF       0.043700
     26 H32          1.2950    -0.8980    -4.0630 hc         1 HSF       0.043700
     27 H41         -0.8870    -0.8690    -2.8150 hc         1 HSF       0.041700
     28 H42         -0.8620     0.8950    -2.8130 hc         1 HSF       0.041700
     29 H51          1.2710     0.8630    -1.4840 hc         1 HSF       0.038200
     30 H52          1.2460    -0.9010    -1.4860 hc         1 HSF       0.038200
     31 H61         -0.9360    -0.8720    -0.2390 hc         1 HSF       0.038700
     32 H62         -0.9110     0.8920    -0.2370 hc         1 HSF       0.038700
     33 H71          1.2210     0.8600     1.0920 hc         1 HSF       0.037700
     34 H72          1.1970    -0.9040     1.0900 hc         1 HSF       0.037700
     35 H81         -0.9850    -0.8740     2.3360 hc         1 HSF       0.037700
     36 H82         -0.9600     0.8890     2.3380 hc         1 HSF       0.037700
     37 H91          1.1720     0.8580     3.6680 hc         1 HSF       0.037200
     38 H92          1.1480    -0.9060     3.6650 hc         1 HSF       0.037200
     39 H101        -1.0340    -0.8770     4.9120 hc         1 HSF       0.037700
     40 H102        -1.0090     0.8870     4.9140 hc         1 HSF       0.037700
     41 H111         1.1230     0.8550     6.2430 hc         1 HSF       0.037200
     42 H112         1.0980    -0.9080     6.2410 hc         1 HSF       0.037200
     43 H121        -1.0830    -0.8790     7.4880 hc         1 HSF       0.036700
     44 H122        -1.0580     0.8840     7.4900 hc         1 HSF       0.036700
     45 H131         1.0740     0.8520     8.8190 hc         1 HSF       0.036700
     46 H132         1.0490    -0.9110     8.8170 hc         1 HSF       0.036700
     47 H141        -1.1330    -0.8820    10.0640 hc         1 HSF       0.036700
     48 H142        -1.1080     0.8820    10.0660 hc         1 HSF       0.036700
     49 H151         1.0240     0.8490    11.4000 hc         1 HSF       0.036700
     50 H152         0.9990    -0.9140    11.3970 hc         1 HSF       0.036700
     51 H161         0.1140    -0.0230    13.5480 hc         1 HSF       0.031367
     52 H162        -1.1430     0.8860    12.6820 hc         1 HSF       0.031367
     53 H163        -1.1680    -0.8930    12.6790 hc         1 HSF       0.031367
@<TRIPOS>BOND
     1     1     2 1   
     2     1    17 1   
     3     1    21 1   
     4     1    22 1   
     5     2     3 1   
     6     2    23 1   
     7     2    24 1   
     8     3     4 1   
     9     3    25 1   
    10     3    26 1   
    11     4     5 1   
    12     4    27 1   
    13     4    28 1   
    14     5     6 1   
    15     5    29 1   
    16     5    30 1   
    17     6     7 1   
    18     6    31 1   
    19     6    32 1   
    20     7     8 1   
    21     7    33 1   
    22     7    34 1   
    23     8     9 1   
    24     8    35 1   
    25     8    36 1   
    26     9    10 1   
    27     9    37 1   
    28     9    38 1   
    29    10    11 1   
    30    10    39 1   
    31    10    40 1   
    32    11    12 1   
    33    11    41 1   
    34    11    42 1   
    35    12    13 1   
    36    12    43 1   
    37    12    44 1   
    38    13    14 1   
    39    13    45 1   
    40    13    46 1   
    41    14    15 1   
    42    14    47 1   
    43    14    48 1   
    44    15    16 1   
    45    15    49 1   
    46    15    50 1   
    47    16    51 1   
    48    16    52 1   
    49    16    53 1   
    50    17    18 2   
    51    17    19 2   
    52    17    20 1   
@<TRIPOS>SUBSTRUCTURE
     1 HSF         1 TEMP              0 ****  ****    0 ROOT
