@<TRIPOS>MOLECULE
HSG
   48    48     1     0     0
SMALL
bcc


@<TRIPOS>ATOM
      1 C1A          7.5430    -0.9390    -2.0940 c3         1 HSG      -0.088100
      2 C2A          6.5740    -0.2330    -1.1550 c3         1 HSG      -0.075400
      3 C3A          7.1240     1.0800    -0.6120 c3         1 HSG      -0.075400
      4 C4A          6.1520     1.8060     0.3080 c3         1 HSG      -0.074400
      5 C5A          6.6970     3.1230     0.8460 c3         1 HSG      -0.075400
      6 C6A          5.7010     3.8580     1.7330 c3         1 HSG      -0.072400
      7 C7           6.2190     5.2080     2.2170 c3         1 HSG      -0.075400
      8 C8           5.2680     5.9290     3.1510 c3         1 HSG       0.144400
      9 O1           4.0430     6.1370     2.4720 os         1 HSG      -0.428600
     10 C1           3.1160     6.9200     3.1390 c6         1 HSG       0.309900
     11 O5           2.7120     6.3790     4.3690 os         1 HSG      -0.428600
     12 C5           2.0420     5.1270     4.3030 c6         1 HSG       0.075100
     13 C6           1.7880     4.6800     5.7320 c3         1 HSG       0.139400
     14 O6           2.9730     4.4450     6.4560 oh         1 HSG      -0.581800
     15 C4           0.7430     5.2870     3.5060 c6         1 HSG       0.128100
     16 O4           0.0210     4.0860     3.4120 oh         1 HSG      -0.586800
     17 C3           1.0360     5.8690     2.1220 c6         1 HSG       0.085100
     18 O3           1.6580     4.8410     1.3870 oh         1 HSG      -0.596800
     19 C2           1.9050     7.1340     2.2280 c6         1 HSG       0.098100
     20 O2           1.1390     8.2280     2.6800 oh         1 HSG      -0.585800
     21 H1A          7.1470    -1.8980    -2.4320 hc         1 HSG       0.031367
     22 H2A          7.7450    -0.3340    -2.9790 hc         1 HSG       0.031367
     23 H3A          8.4980    -1.1310    -1.6020 hc         1 HSG       0.031367
     24 H4A          5.6320    -0.0410    -1.6770 hc         1 HSG       0.036700
     25 H5A          6.3250    -0.8950    -0.3190 hc         1 HSG       0.036700
     26 H6           8.0580     0.8860    -0.0740 hc         1 HSG       0.036700
     27 H7           7.3890     1.7340    -1.4500 hc         1 HSG       0.036700
     28 H8           5.2170     2.0010    -0.2310 hc         1 HSG       0.037200
     29 H9           5.8850     1.1530     1.1450 hc         1 HSG       0.037200
     30 H10          7.6200     2.9360     1.4050 hc         1 HSG       0.035700
     31 H11          6.9780     3.7670     0.0050 hc         1 HSG       0.035700
     32 H12          4.7680     3.9960     1.1800 hc         1 HSG       0.044700
     33 H13          5.4510     3.2340     2.5990 hc         1 HSG       0.044700
     34 H14          7.1620     5.0670     2.7530 hc         1 HSG       0.045700
     35 H15          6.4490     5.8470     1.3580 hc         1 HSG       0.045700
     36 H16          5.1170     5.3310     4.0570 h1         1 HSG       0.032700
     37 H17          5.6970     6.8910     3.4630 h1         1 HSG       0.032700
     38 H1           3.5520     7.8960     3.4000 h2         1 HSG       0.076700
     39 H5           2.6790     4.3750     3.8130 h1         1 HSG       0.058700
     40 H61          1.2430     5.4660     6.2640 h1         1 HSG       0.058200
     41 H62          1.1430     3.7960     5.7140 h1         1 HSG       0.058200
     42 HO6          3.4060     3.6710     6.0830 ho         1 HSG       0.397000
     43 H4           0.0960     5.9880     4.0470 h1         1 HSG       0.077700
     44 HO4          0.4730     3.5210     2.7740 ho         1 HSG       0.422000
     45 H3           0.0840     6.1590     1.6550 h1         1 HSG       0.058700
     46 HO3          1.7320     5.1080     0.4660 ho         1 HSG       0.418000
     47 H2           2.2570     7.4090     1.2290 h1         1 HSG       0.090700
     48 HO2          0.9380     8.1180     3.6160 ho         1 HSG       0.415000
@<TRIPOS>BOND
     1     1     2 1   
     2     1    21 1   
     3     1    22 1   
     4     1    23 1   
     5     2     3 1   
     6     2    24 1   
     7     2    25 1   
     8     3     4 1   
     9     3    26 1   
    10     3    27 1   
    11     4     5 1   
    12     4    28 1   
    13     4    29 1   
    14     5     6 1   
    15     5    30 1   
    16     5    31 1   
    17     6     7 1   
    18     6    32 1   
    19     6    33 1   
    20     7     8 1   
    21     7    34 1   
    22     7    35 1   
    23     8     9 1   
    24     8    36 1   
    25     8    37 1   
    26     9    10 1   
    27    10    11 1   
    28    10    19 1   
    29    10    38 1   
    30    11    12 1   
    31    12    13 1   
    32    12    15 1   
    33    12    39 1   
    34    13    14 1   
    35    13    40 1   
    36    13    41 1   
    37    14    42 1   
    38    15    16 1   
    39    15    17 1   
    40    15    43 1   
    41    16    44 1   
    42    17    18 1   
    43    17    19 1   
    44    17    45 1   
    45    18    46 1   
    46    19    20 1   
    47    19    47 1   
    48    20    48 1   
@<TRIPOS>SUBSTRUCTURE
     1 HSG         1 TEMP              0 ****  ****    0 ROOT
