@<TRIPOS>MOLECULE
HSG
   48    48     1     0     0
SMALL
No Charge or Current Charge


@<TRIPOS>ATOM
      1 C1A          7.2970    -1.1860    -1.8150 c3         1 HSG      -0.088100
      2 C2A          6.4140    -0.4120    -0.8170 c3         1 HSG      -0.075400
      3 C3A          6.9310     1.0150    -0.5330 c3         1 HSG      -0.075400
      4 C4A          6.0450     1.7910     0.4670 c3         1 HSG      -0.074400
      5 C5A          6.5620     3.2180     0.7500 c3         1 HSG      -0.075400
      6 C6A          5.6760     3.9930     1.7500 c3         1 HSG      -0.072400
      7 C7           6.1930     5.4240     2.0330 c3         1 HSG      -0.075400
      8 C8           5.3420     6.1980     3.0590 c3         1 HSG       0.167600
      9 O1           4.0390     6.4040     2.4890 os         1 HSG      -0.475000
     10 C1           3.0650     7.0410     3.3400 c6         1 HSG       0.356300
     11 O5           2.7310     6.1570     4.4370 os         1 HSG      -0.475000
     12 C5           2.1770     4.8710     4.0300 c6         1 HSG       0.098300
     13 C6           1.9400     4.0440     5.3260 c3         1 HSG       0.162600
     14 O6           3.0450     4.1940     6.2300 oh         1 HSG      -0.704000
     15 C4           0.8730     5.0550     3.1870 c6         1 HSG       0.151300
     16 O4           0.4270     3.8020     2.6440 oh         1 HSG      -0.709000
     17 C3           1.1120     6.0580     2.0140 c6         1 HSG       0.108300
     18 O3           1.9540     5.4420     1.0170 oh         1 HSG      -0.659000
     19 C2           1.7540     7.3810     2.5520 c6         1 HSG       0.121300
     20 O2           0.8100     8.0730     3.4070 oh         1 HSG      -0.708000
     21 H1A          6.8910    -2.1910    -1.9840 hc         1 HSG       0.031367
     22 H2A          7.3400    -0.6670    -2.7790 hc         1 HSG       0.031367
     23 H3A          8.3180    -1.2890    -1.4300 hc         1 HSG       0.031367
     24 H4A          5.3920    -0.3570    -1.2140 hc         1 HSG       0.036700
     25 H5A          6.3620    -0.9740     0.1240 hc         1 HSG       0.036700
     26 H6           7.9530     0.9560    -0.1390 hc         1 HSG       0.036700
     27 H7           6.9830     1.5730    -1.4760 hc         1 HSG       0.036700
     28 H8           5.0230     1.8500     0.0720 hc         1 HSG       0.037200
     29 H9           5.9930     1.2330     1.4100 hc         1 HSG       0.037200
     30 H10          7.5840     3.1600     1.1450 hc         1 HSG       0.035700
     31 H11          6.6140     3.7770    -0.1930 hc         1 HSG       0.035700
     32 H12          4.6550     4.0450     1.3540 hc         1 HSG       0.044700
     33 H13          5.6250     3.4370     2.6940 hc         1 HSG       0.044700
     34 H14          7.2200     5.3650     2.4110 hc         1 HSG       0.045700
     35 H15          6.2330     5.9950     1.0970 hc         1 HSG       0.045700
     36 H16          5.2810     5.6210     3.9910 h1         1 HSG       0.032700
     37 H17          5.8210     7.1610     3.2800 h1         1 HSG       0.032700
     38 H1           3.4900     7.9760     3.7380 h2         1 HSG       0.076700
     39 H5           2.9290     4.3380     3.4290 h1         1 HSG       0.058700
     40 H61          1.0140     4.3990     5.8010 h1         1 HSG       0.058200
     41 H62          1.7910     2.9890     5.0570 h1         1 HSG       0.058200
     42 HO6          3.3840     5.1000     6.0340 ho         1 HSG       0.496000
     43 H4           0.0950     5.4710     3.8460 h1         1 HSG       0.077700
     44 HO4          0.8090     3.7890     1.7320 ho         1 HSG       0.521000
     45 H3           0.1370     6.3060     1.5660 h1         1 HSG       0.058700
     46 HO3          2.8830     5.6260     1.3090 ho         1 HSG       0.457000
     47 H2           2.0180     8.0170     1.6940 h1         1 HSG       0.090700
     48 HO2          0.9690     7.7460     4.3250 ho         1 HSG       0.514000
@<TRIPOS>BOND
     1     1     2 1   
     2     1    21 1   
     3     1    22 1   
     4     1    23 1   
     5     2     3 1   
     6     2    24 1   
     7     2    25 1   
     8     3     4 1   
     9     3    26 1   
    10     3    27 1   
    11     4     5 1   
    12     4    28 1   
    13     4    29 1   
    14     5     6 1   
    15     5    30 1   
    16     5    31 1   
    17     6     7 1   
    18     6    32 1   
    19     6    33 1   
    20     7     8 1   
    21     7    34 1   
    22     7    35 1   
    23     8     9 1   
    24     8    36 1   
    25     8    37 1   
    26     9    10 1   
    27    10    11 1   
    28    10    19 1   
    29    10    38 1   
    30    11    12 1   
    31    12    13 1   
    32    12    15 1   
    33    12    39 1   
    34    13    14 1   
    35    13    40 1   
    36    13    41 1   
    37    14    42 1   
    38    15    16 1   
    39    15    17 1   
    40    15    43 1   
    41    16    44 1   
    42    17    18 1   
    43    17    19 1   
    44    17    45 1   
    45    18    46 1   
    46    19    20 1   
    47    19    47 1   
    48    20    48 1   
@<TRIPOS>SUBSTRUCTURE
     1 HSG         1 TEMP              0 ****  ****    0 ROOT
