@<TRIPOS>MOLECULE
HSH
   48    48     1     0     0
SMALL
abcg2


@<TRIPOS>ATOM
      1 C1A         -1.3440     4.4880    16.4210 c3         1 HSH      -0.089100
      2 C2A         -0.8070     3.4900    15.4040 c3         1 HSH      -0.075400
      3 C3A         -1.5220     3.5730    14.0600 c3         1 HSH      -0.075400
      4 C4A         -1.0050     2.5660    13.0410 c3         1 HSH      -0.074400
      5 C5A         -1.7200     2.6500    11.6980 c3         1 HSH      -0.074400
      6 C6A         -1.2060     1.6330    10.6860 c3         1 HSH      -0.074400
      7 C7          -1.9110     1.7280     9.3390 c3         1 HSH      -0.083400
      8 C8          -1.3890     0.6930     8.3660 c3         1 HSH       0.169600
      9 O1          -2.0580     0.8460     7.1230 os         1 HSH      -0.512000
     10 C1          -1.7460    -0.1000     6.1450 c6         1 HSH       0.386300
     11 O5          -0.4320     0.0010     5.6810 os         1 HSH      -0.459000
     12 C5          -0.0600     1.1350     4.9090 c6         1 HSH       0.133300
     13 C6           0.2670     2.3420     5.7980 c3         1 HSH       0.129600
     14 O6           0.9360     3.2910     4.9830 oh         1 HSH      -0.733000
     15 C4          -1.0670     1.3760     3.7690 c6         1 HSH       0.137300
     16 O4          -0.7790     2.5230     3.0110 oh         1 HSH      -0.715000
     17 C3          -2.5200     1.3660     4.2510 c6         1 HSH       0.118300
     18 O3          -2.8810     2.5130     4.9850 oh         1 HSH      -0.652000
     19 C2          -2.7790     0.0670     5.0300 c6         1 HSH       0.112300
     20 O2          -2.6520    -1.0670     4.2080 oh         1 HSH      -0.705000
     21 H1A         -0.8140     4.4190    17.3710 hc         1 HSH       0.031700
     22 H2A         -1.2410     5.5130    16.0590 hc         1 HSH       0.031700
     23 H3A         -2.4030     4.3160    16.6200 hc         1 HSH       0.031700
     24 H4A          0.2640     3.6590    15.2550 hc         1 HSH       0.036700
     25 H5A         -0.9010     2.4740    15.8000 hc         1 HSH       0.036700
     26 H6          -2.5960     3.4190    14.2120 hc         1 HSH       0.037700
     27 H7          -1.4160     4.5870    13.6580 hc         1 HSH       0.037700
     28 H8           0.0690     2.7200    12.8890 hc         1 HSH       0.037700
     29 H9          -1.1110     1.5530    13.4430 hc         1 HSH       0.037700
     30 H10         -2.7940     2.5020    11.8480 hc         1 HSH       0.039700
     31 H11         -1.6070     3.6600    11.2890 hc         1 HSH       0.039700
     32 H12         -0.1300     1.7740    10.5440 hc         1 HSH       0.039700
     33 H13         -1.3300     0.6240    11.0920 hc         1 HSH       0.039700
     34 H14         -2.9890     1.5960     9.4740 hc         1 HSH       0.051200
     35 H15         -1.7630     2.7290     8.9210 hc         1 HSH       0.051200
     36 H16         -0.3070     0.8100     8.2440 h1         1 HSH       0.033200
     37 H17         -1.5660    -0.3200     8.7540 h1         1 HSH       0.033200
     38 H1          -1.8120    -1.1130     6.5620 h2         1 HSH       0.087700
     39 H5           0.8900     0.8450     4.4470 h1         1 HSH       0.091700
     40 H61         -0.6180     2.7870     6.2550 h1         1 HSH       0.037200
     41 H62          0.9160     1.9970     6.6110 h1         1 HSH       0.037200
     42 HO6          1.0310     4.1090     5.4800 ho         1 HSH       0.515000
     43 H4          -0.9680     0.5140     3.0990 h1         1 HSH       0.077700
     44 HO4         -0.2790     3.1440     3.5600 ho         1 HSH       0.532000
     45 H3          -3.1600     1.3630     3.3590 h1         1 HSH       0.076700
     46 HO3         -2.7020     2.3590     5.9200 ho         1 HSH       0.458000
     47 H2          -3.7750     0.1150     5.4910 h1         1 HSH       0.061700
     48 HO2         -3.3260    -1.0220     3.5220 ho         1 HSH       0.514000
@<TRIPOS>BOND
     1     1     2 1   
     2     1    21 1   
     3     1    22 1   
     4     1    23 1   
     5     2     3 1   
     6     2    24 1   
     7     2    25 1   
     8     3     4 1   
     9     3    26 1   
    10     3    27 1   
    11     4     5 1   
    12     4    28 1   
    13     4    29 1   
    14     5     6 1   
    15     5    30 1   
    16     5    31 1   
    17     6     7 1   
    18     6    32 1   
    19     6    33 1   
    20     7     8 1   
    21     7    34 1   
    22     7    35 1   
    23     8     9 1   
    24     8    36 1   
    25     8    37 1   
    26     9    10 1   
    27    10    11 1   
    28    10    19 1   
    29    10    38 1   
    30    11    12 1   
    31    12    13 1   
    32    12    15 1   
    33    12    39 1   
    34    13    14 1   
    35    13    40 1   
    36    13    41 1   
    37    14    42 1   
    38    15    16 1   
    39    15    17 1   
    40    15    43 1   
    41    16    44 1   
    42    17    18 1   
    43    17    19 1   
    44    17    45 1   
    45    18    46 1   
    46    19    20 1   
    47    19    47 1   
    48    20    48 1   
@<TRIPOS>SUBSTRUCTURE
     1 HSH         1 TEMP              0 ****  ****    0 ROOT
