@<TRIPOS>MOLECULE
HSH
   48    48     1     0     0
SMALL
No Charge or Current Charge


@<TRIPOS>ATOM
      1 C1A         -1.2610     4.6610    16.4000 c3         1 HSH      -0.089100
      2 C2A         -0.8190     3.5410    15.4380 c3         1 HSH      -0.075400
      3 C3A         -1.4620     3.6560    14.0390 c3         1 HSH      -0.075400
      4 C4A         -1.0180     2.5340    13.0760 c3         1 HSH      -0.074400
      5 C5A         -1.6620     2.6490    11.6770 c3         1 HSH      -0.074400
      6 C6A         -1.2180     1.5260    10.7130 c3         1 HSH      -0.074400
      7 C7          -1.8610     1.6410     9.3140 c3         1 HSH      -0.083400
      8 C8          -1.4160     0.5220     8.3560 c3         1 HSH       0.169600
      9 O1          -2.0720     0.7460     7.0980 os         1 HSH      -0.512000
     10 C1          -1.7650    -0.1940     6.0490 c6         1 HSH       0.386300
     11 O5          -0.3880    -0.0270     5.6080 os         1 HSH      -0.459000
     12 C5          -0.0480     1.2070     4.9030 c6         1 HSH       0.133300
     13 C6           0.1700     2.4000     5.9040 c3         1 HSH       0.129600
     14 O6           0.6150     3.5980     5.2350 oh         1 HSH      -0.733000
     15 C4          -1.0490     1.4890     3.7280 c6         1 HSH       0.137300
     16 O4          -0.7820     2.7720     3.1270 oh         1 HSH      -0.715000
     17 C3          -2.5480     1.3540     4.1780 c6         1 HSH       0.118300
     18 O3          -2.9410     2.3970     5.0950 oh         1 HSH      -0.652000
     19 C2          -2.7590    -0.0450     4.8410 c6         1 HSH       0.112300
     20 O2          -2.5660    -1.0980     3.8610 oh         1 HSH      -0.705000
     21 H1A         -0.7800     4.5370    17.3780 hc         1 HSH       0.031700
     22 H2A         -0.9840     5.6450    16.0030 hc         1 HSH       0.031700
     23 H3A         -2.3470     4.6390    16.5480 hc         1 HSH       0.031700
     24 H4A          0.2740     3.5670    15.3400 hc         1 HSH       0.036700
     25 H5A         -1.0770     2.5700    15.8790 hc         1 HSH       0.036700
     26 H6          -2.5540     3.6320    14.1420 hc         1 HSH       0.037700
     27 H7          -1.2030     4.6290    13.6030 hc         1 HSH       0.037700
     28 H8           0.0740     2.5580    12.9730 hc         1 HSH       0.037700
     29 H9          -1.2770     1.5610    13.5120 hc         1 HSH       0.037700
     30 H10         -2.7540     2.6240    11.7790 hc         1 HSH       0.039700
     31 H11         -1.4030     3.6210    11.2400 hc         1 HSH       0.039700
     32 H12         -0.1260     1.5500    10.6100 hc         1 HSH       0.039700
     33 H13         -1.4770     0.5530    11.1500 hc         1 HSH       0.039700
     34 H14         -2.9530     1.6120     9.4130 hc         1 HSH       0.051200
     35 H15         -1.6010     2.6120     8.8750 hc         1 HSH       0.051200
     36 H16         -0.3240     0.5500     8.2400 h1         1 HSH       0.033200
     37 H17         -1.6970    -0.4550     8.7720 h1         1 HSH       0.033200
     38 H1          -1.8840    -1.2130     6.4490 h2         1 HSH       0.087700
     39 H5           0.9360     1.0350     4.4420 h1         1 HSH       0.091700
     40 H61         -0.7530     2.6200     6.4480 h1         1 HSH       0.037200
     41 H62          0.9180     2.0830     6.6450 h1         1 HSH       0.037200
     42 HO6          0.9380     4.2190     5.9340 ho         1 HSH       0.515000
     43 H4          -0.8740     0.7070     2.9740 h1         1 HSH       0.077700
     44 HO4         -0.2850     3.2690     3.8420 ho         1 HSH       0.532000
     45 H3          -3.1770     1.4080     3.2760 h1         1 HSH       0.076700
     46 HO3         -2.6830     2.0650     5.9910 ho         1 HSH       0.458000
     47 H2          -3.7830    -0.0960     5.2410 h1         1 HSH       0.061700
     48 HO2         -3.4040    -1.1830     3.3470 ho         1 HSH       0.514000
@<TRIPOS>BOND
     1     1     2 1   
     2     1    21 1   
     3     1    22 1   
     4     1    23 1   
     5     2     3 1   
     6     2    24 1   
     7     2    25 1   
     8     3     4 1   
     9     3    26 1   
    10     3    27 1   
    11     4     5 1   
    12     4    28 1   
    13     4    29 1   
    14     5     6 1   
    15     5    30 1   
    16     5    31 1   
    17     6     7 1   
    18     6    32 1   
    19     6    33 1   
    20     7     8 1   
    21     7    34 1   
    22     7    35 1   
    23     8     9 1   
    24     8    36 1   
    25     8    37 1   
    26     9    10 1   
    27    10    11 1   
    28    10    19 1   
    29    10    38 1   
    30    11    12 1   
    31    12    13 1   
    32    12    15 1   
    33    12    39 1   
    34    13    14 1   
    35    13    40 1   
    36    13    41 1   
    37    14    42 1   
    38    15    16 1   
    39    15    17 1   
    40    15    43 1   
    41    16    44 1   
    42    17    18 1   
    43    17    19 1   
    44    17    45 1   
    45    18    46 1   
    46    19    20 1   
    47    19    47 1   
    48    20    48 1   
@<TRIPOS>SUBSTRUCTURE
     1 HSH         1 TEMP              0 ****  ****    0 ROOT
