@<TRIPOS>MOLECULE
HSI
   52    53     1     0     0
SMALL
bcc


@<TRIPOS>ATOM
      1 C60          7.7760    18.5080   -19.4810 c3         1 HSI      -0.087100
      2 C56          8.4460    19.6340   -20.2570 c3         1 HSI      -0.071400
      3 C52          9.1950    19.1370   -21.4860 c3         1 HSI      -0.081400
      4 C48          9.8110    20.2670   -22.3090 c3         1 HSI      -0.067400
      5 C44         10.6090    19.8130   -23.5380 c3         1 HSI      -0.066400
      6 C40         12.1100    19.5980   -23.3420 c3         1 HSI      -0.067400
      7 C9          12.4940    18.4890   -22.3340 c3         1 HSI      -0.129700
      8 C5          12.7480    19.0130   -20.9260 c3         1 HSI      -0.209400
      9 C3          13.2190    17.9240   -19.9530 c          1 HSI       0.925600
     10 O1          13.7100    16.8990   -20.4790 o          1 HSI      -0.833300
     11 O4          13.1020    18.1510   -18.7360 o          1 HSI      -0.833300
     12 C11         13.6250    17.6390   -22.8870 c          1 HSI       0.646700
     13 O12         13.3790    16.6380   -23.5310 o          1 HSI      -0.567100
     14 C13         15.0520    18.0900   -22.8010 ca         1 HSI      -0.080600
     15 C14         15.4280    19.4290   -22.7650 ca         1 HSI      -0.088500
     16 C16         16.7660    19.7930   -22.7680 ca         1 HSI      -0.116500
     17 C18         17.7620    18.8160   -22.7930 ca         1 HSI      -0.005000
     18 C25         19.1370    19.1760   -22.7870 cg         1 HSI      -0.033000
     19 C26         20.3100    19.4660   -22.7820 ch         1 HSI      -0.180000
     20 C27         21.6910    19.8000   -22.7780 ca         1 HSI       0.066000
     21 C28         22.6630    18.7950   -22.7990 ca         1 HSI      -0.109500
     22 C30         24.0090    19.1150   -22.7960 ca         1 HSI      -0.124000
     23 C32         24.3890    20.4490   -22.7710 ca         1 HSI       0.019400
     24 CL1         26.0700    20.8540   -22.7680 cl         1 HSI      -0.126400
     25 C33         23.4430    21.4640   -22.7490 ca         1 HSI      -0.124000
     26 C35         22.0990    21.1370   -22.7520 ca         1 HSI      -0.109500
     27 C19         17.3870    17.4680   -22.8310 ca         1 HSI      -0.116500
     28 C21         16.0530    17.1180   -22.8470 ca         1 HSI      -0.088500
     29 H601         7.2480    18.8830   -18.6030 hc         1 HSI       0.029033
     30 H602         7.0490    17.9820   -20.1020 hc         1 HSI       0.029033
     31 H603         8.5080    17.7740   -19.1380 hc         1 HSI       0.029033
     32 H561         7.6920    20.3670   -20.5610 hc         1 HSI       0.031700
     33 H562         9.1420    20.1680   -19.6030 hc         1 HSI       0.031700
     34 H521         9.9620    18.4260   -21.1670 hc         1 HSI       0.048700
     35 H522         8.5100    18.5700   -22.1260 hc         1 HSI       0.048700
     36 H481         8.9950    20.9170   -22.6380 hc         1 HSI       0.029700
     37 H482        10.4430    20.8920   -21.6690 hc         1 HSI       0.029700
     38 H441        10.1650    18.8970   -23.9440 hc         1 HSI       0.027200
     39 H442        10.4990    20.5650   -24.3240 hc         1 HSI       0.027200
     40 H401        12.5310    19.3720   -24.3270 hc         1 HSI       0.027700
     41 H402        12.5650    20.5460   -23.0380 hc         1 HSI       0.027700
     42 H9          11.6540    17.7890   -22.2890 hc         1 HSI       0.070700
     43 H51         13.4980    19.8120   -20.9370 hc         1 HSI       0.028200
     44 H52         11.8440    19.4870   -20.5400 hc         1 HSI       0.028200
     45 H14         14.6850    20.2150   -22.7550 ha         1 HSI       0.146000
     46 H16         17.0390    20.8400   -22.7510 ha         1 HSI       0.125000
     47 H28         22.3630    17.7560   -22.8190 ha         1 HSI       0.143500
     48 H30         24.7540    18.3310   -22.8130 ha         1 HSI       0.142000
     49 H33         23.7490    22.5010   -22.7300 ha         1 HSI       0.142000
     50 H35         21.3580    21.9250   -22.7350 ha         1 HSI       0.143500
     51 H19         18.1500    16.7000   -22.8500 ha         1 HSI       0.125000
     52 H21         15.7830    16.0710   -22.8830 ha         1 HSI       0.146000
@<TRIPOS>BOND
     1     1     2 1   
     2     1    29 1   
     3     1    30 1   
     4     1    31 1   
     5     2     3 1   
     6     2    32 1   
     7     2    33 1   
     8     3     4 1   
     9     3    34 1   
    10     3    35 1   
    11     4     5 1   
    12     4    36 1   
    13     4    37 1   
    14     5     6 1   
    15     5    38 1   
    16     5    39 1   
    17     6     7 1   
    18     6    40 1   
    19     6    41 1   
    20     7     8 1   
    21     7    12 1   
    22     7    42 1   
    23     8     9 1   
    24     8    43 1   
    25     8    44 1   
    26     9    10 1   
    27     9    11 1   
    28    12    13 2   
    29    12    14 1   
    30    14    15 ar  
    31    14    28 ar  
    32    15    16 ar  
    33    15    45 1   
    34    16    17 ar  
    35    16    46 1   
    36    17    18 1   
    37    17    27 ar  
    38    18    19 3   
    39    19    20 1   
    40    20    21 ar  
    41    20    26 ar  
    42    21    22 ar  
    43    21    47 1   
    44    22    23 ar  
    45    22    48 1   
    46    23    24 1   
    47    23    25 ar  
    48    25    26 ar  
    49    25    49 1   
    50    26    50 1   
    51    27    28 ar  
    52    27    51 1   
    53    28    52 1   
@<TRIPOS>SUBSTRUCTURE
     1 HSI         1 TEMP              0 ****  ****    0 ROOT
