@<TRIPOS>MOLECULE
HSI
   52    53     1     0     0
SMALL
No Charge or Current Charge


@<TRIPOS>ATOM
      1 C60          7.3600    18.6620   -19.7710 c3         1 HSI      -0.087100
      2 C56          8.1040    19.7870   -20.5160 c3         1 HSI      -0.071400
      3 C52          9.1080    19.2580   -21.5630 c3         1 HSI      -0.081400
      4 C48          9.8510    20.3920   -22.3100 c3         1 HSI      -0.067400
      5 C44         10.8360    19.9230   -23.4130 c3         1 HSI      -0.066400
      6 C40         12.3040    19.6780   -22.9700 c3         1 HSI      -0.067400
      7 C9          12.5600    18.4350   -22.0620 c3         1 HSI      -0.129700
      8 C5          12.7340    18.7920   -20.5470 c3         1 HSI      -0.209400
      9 C3          12.7340    17.5140   -19.6880 c          1 HSI       0.715000
     10 O1          13.8040    16.9580   -19.4960 o          1 HSI      -0.728000
     11 O4          11.6630    17.0790   -19.2960 o          1 HSI      -0.728000
     12 C11         13.6980    17.5180   -22.6060 c          1 HSI       0.646700
     13 O12         13.3990    16.3970   -23.0100 o          1 HSI      -0.567100
     14 C13         15.1550    17.9710   -22.6570 ca         1 HSI      -0.080600
     15 C14         15.5600    19.3110   -22.4350 ca         1 HSI      -0.070500
     16 C16         16.9160    19.6750   -22.5010 ca         1 HSI      -0.098500
     17 C18         17.8970    18.7140   -22.7910 ca         1 HSI      -0.005000
     18 C25         19.2800    19.0890   -22.8570 cg         1 HSI      -0.033000
     19 C26         20.4530    19.4210   -22.9130 ch         1 HSI      -0.180000
     20 C27         21.8170    19.8250   -22.9740 ca         1 HSI       0.066000
     21 C28         22.8390    18.8580   -23.0330 ca         1 HSI      -0.091500
     22 C30         24.1870    19.2570   -23.0940 ca         1 HSI      -0.106000
     23 C32         24.5140    20.6230   -23.0960 ca         1 HSI       0.111000
     24 Cl1         26.1990    21.1210   -23.1720 cl         1 HSI      -0.218000
     25 C33         23.4980    21.5910   -23.0370 ca         1 HSI      -0.106000
     26 C35         22.1500    21.1930   -22.9770 ca         1 HSI      -0.091500
     27 C19         17.5140    17.3830   -23.0170 ca         1 HSI      -0.098500
     28 C21         16.1580    17.0160   -22.9520 ca         1 HSI      -0.070500
     29 H601         6.6610    19.0850   -19.0400 hc         1 HSI       0.029033
     30 H602         6.7890    18.0430   -20.4740 hc         1 HSI       0.029033
     31 H603         8.0680    18.0170   -19.2360 hc         1 HSI       0.029033
     32 H561         7.3690    20.4340   -21.0100 hc         1 HSI       0.031700
     33 H562         8.6360    20.4070   -19.7840 hc         1 HSI       0.031700
     34 H521         9.8250    18.6040   -21.0590 hc         1 HSI       0.048700
     35 H522         8.5720    18.6380   -22.2930 hc         1 HSI       0.048700
     36 H481         9.0940    21.0300   -22.7850 hc         1 HSI       0.029700
     37 H482        10.3800    21.0290   -21.5910 hc         1 HSI       0.029700
     38 H441        10.4420    19.0290   -23.9120 hc         1 HSI       0.027200
     39 H442        10.8610    20.7050   -24.1820 hc         1 HSI       0.027200
     40 H401        12.8990    19.5690   -23.8860 hc         1 HSI       0.027700
     41 H402        12.6730    20.5870   -22.4800 hc         1 HSI       0.027700
     42 H9          11.6600    17.8130   -22.1330 hc         1 HSI       0.070700
     43 H51         13.6900    19.3120   -20.4400 hc         1 HSI       0.028200
     44 H52         11.8760    19.4180   -20.2770 hc         1 HSI       0.028200
     45 H14         14.8400    20.0900   -22.2130 ha         1 HSI       0.128000
     46 H16         17.2020    20.7100   -22.3260 ha         1 HSI       0.107000
     47 H28         22.5890    17.7990   -23.0320 ha         1 HSI       0.125500
     48 H30         24.9750    18.5090   -23.1390 ha         1 HSI       0.124000
     49 H33         23.7550    22.6480   -23.0390 ha         1 HSI       0.124000
     50 H35         21.3660    21.9460   -22.9320 ha         1 HSI       0.125500
     51 H19         18.2640    16.6280   -23.2430 ha         1 HSI       0.107000
     52 H21         15.8920    15.9760   -23.1300 ha         1 HSI       0.128000
@<TRIPOS>BOND
     1     1     2 1   
     2     1    29 1   
     3     1    30 1   
     4     1    31 1   
     5     2     3 1   
     6     2    32 1   
     7     2    33 1   
     8     3     4 1   
     9     3    34 1   
    10     3    35 1   
    11     4     5 1   
    12     4    36 1   
    13     4    37 1   
    14     5     6 1   
    15     5    38 1   
    16     5    39 1   
    17     6     7 1   
    18     6    40 1   
    19     6    41 1   
    20     7     8 1   
    21     7    12 1   
    22     7    42 1   
    23     8     9 1   
    24     8    43 1   
    25     8    44 1   
    26     9    10 1   
    27     9    11 1   
    28    12    13 2   
    29    12    14 1   
    30    14    15 ar  
    31    14    28 ar  
    32    15    16 ar  
    33    15    45 1   
    34    16    17 ar  
    35    16    46 1   
    36    17    18 1   
    37    17    27 ar  
    38    18    19 3   
    39    19    20 1   
    40    20    21 ar  
    41    20    26 ar  
    42    21    22 ar  
    43    21    47 1   
    44    22    23 ar  
    45    22    48 1   
    46    23    24 1   
    47    23    25 ar  
    48    25    26 ar  
    49    25    49 1   
    50    26    50 1   
    51    27    28 ar  
    52    27    51 1   
    53    28    52 1   
@<TRIPOS>SUBSTRUCTURE
     1 HSI         1 TEMP              0 ****  ****    0 ROOT
