@<TRIPOS>MOLECULE
HSJ
   48    48     1     0     0
SMALL
abcg2


@<TRIPOS>ATOM
      1 C1A         -0.7780     5.1200   -16.8470 c3         1 HSJ      -0.088100
      2 C2A         -0.2740     4.0820   -15.8540 c3         1 HSJ      -0.074400
      3 C3A         -1.0140     4.1280   -14.5220 c3         1 HSJ      -0.075400
      4 C4A         -0.5270     3.0860   -13.5230 c3         1 HSJ      -0.074400
      5 C5A         -1.2750     3.1320   -12.1970 c3         1 HSJ      -0.073400
      6 C6A         -0.8010     2.0780   -11.2030 c3         1 HSJ      -0.074400
      7 C7          -1.5540     2.1340    -9.8790 c3         1 HSJ      -0.080400
      8 C8          -1.0830     1.0660    -8.9130 c3         1 HSJ       0.163600
      9 O1          -1.8240     1.1740    -7.7120 os         1 HSJ      -0.445000
     10 C1          -1.5770     0.1780    -6.7820 c6         1 HSJ       0.397300
     11 O5          -0.3390     0.3090    -6.1380 os         1 HSJ      -0.478000
     12 C5          -0.1520     1.3780    -5.2220 c6         1 HSJ       0.145300
     13 C6           0.1160     2.7270    -5.9120 c3         1 HSJ       0.144600
     14 O6           0.8770     3.5880    -5.0930 oh         1 HSJ      -0.720000
     15 C4          -1.2710     1.3750    -4.1730 c6         1 HSJ       0.105300
     16 O4          -1.1300     2.5410    -3.3890 oh         1 HSJ      -0.732000
     17 C3          -2.6740     1.2920    -4.7800 c6         1 HSJ       0.113300
     18 O3          -3.0640     2.4790    -5.4170 oh         1 HSJ      -0.616000
     19 C2          -2.7060     0.1210    -5.7550 c6         1 HSJ       0.166300
     20 O2          -3.9220    -0.0090    -6.4400 oh         1 HSJ      -0.679000
     21 H1A         -0.6630     6.1320   -16.4530 hc         1 HSJ       0.031367
     22 H2A         -0.2350     5.0700   -17.7920 hc         1 HSJ       0.031367
     23 H3A         -1.8370     4.9730   -17.0670 hc         1 HSJ       0.031367
     24 H4A         -0.3710     3.0820   -16.2850 hc         1 HSJ       0.036200
     25 H5A          0.7960     4.2320   -15.6780 hc         1 HSJ       0.036200
     26 H6          -0.9100     5.1280   -14.0870 hc         1 HSJ       0.037700
     27 H7          -2.0860     3.9870   -14.7000 hc         1 HSJ       0.037700
     28 H8          -0.6280     2.0870   -13.9600 hc         1 HSJ       0.036700
     29 H9           0.5440     3.2290   -13.3410 hc         1 HSJ       0.036700
     30 H10         -1.1640     4.1270   -11.7530 hc         1 HSJ       0.039700
     31 H11         -2.3460     2.9990   -12.3800 hc         1 HSJ       0.039700
     32 H12         -0.9160     1.0830   -11.6460 hc         1 HSJ       0.037200
     33 H13          0.2710     2.2070   -11.0200 hc         1 HSJ       0.037200
     34 H14         -1.4200     3.1210    -9.4270 hc         1 HSJ       0.055200
     35 H15         -2.6260     2.0120   -10.0610 hc         1 HSJ       0.055200
     36 H16         -1.2250     0.0690    -9.3530 h1         1 HSJ       0.024700
     37 H17         -0.0080     1.1840    -8.7270 h1         1 HSJ       0.024700
     38 H1          -1.5140    -0.7980    -7.2850 h2         1 HSJ       0.071700
     39 H5           0.7790     1.1230    -4.7060 h1         1 HSJ       0.082700
     40 H61          0.7220     2.5280    -6.8000 h1         1 HSJ       0.061700
     41 H62         -0.8070     3.2040    -6.2490 h1         1 HSJ       0.061700
     42 HO6          0.3570     3.7600    -4.3010 ho         1 HSJ       0.513000
     43 H4          -1.1340     0.4750    -3.5570 h1         1 HSJ       0.043700
     44 HO4         -1.5920     2.4230    -2.5520 ho         1 HSJ       0.514000
     45 H3          -3.3730     1.0560    -3.9580 h1         1 HSJ       0.018700
     46 HO3         -2.9130     3.2000    -4.7970 ho         1 HSJ       0.446000
     47 H2          -2.4990    -0.7740    -5.1510 h1         1 HSJ       0.036700
     48 HO2         -4.6030    -0.2470    -5.8020 ho         1 HSJ       0.503000
@<TRIPOS>BOND
     1     1     2 1   
     2     1    21 1   
     3     1    22 1   
     4     1    23 1   
     5     2     3 1   
     6     2    24 1   
     7     2    25 1   
     8     3     4 1   
     9     3    26 1   
    10     3    27 1   
    11     4     5 1   
    12     4    28 1   
    13     4    29 1   
    14     5     6 1   
    15     5    30 1   
    16     5    31 1   
    17     6     7 1   
    18     6    32 1   
    19     6    33 1   
    20     7     8 1   
    21     7    34 1   
    22     7    35 1   
    23     8     9 1   
    24     8    36 1   
    25     8    37 1   
    26     9    10 1   
    27    10    11 1   
    28    10    19 1   
    29    10    38 1   
    30    11    12 1   
    31    12    13 1   
    32    12    15 1   
    33    12    39 1   
    34    13    14 1   
    35    13    40 1   
    36    13    41 1   
    37    14    42 1   
    38    15    16 1   
    39    15    17 1   
    40    15    43 1   
    41    16    44 1   
    42    17    18 1   
    43    17    19 1   
    44    17    45 1   
    45    18    46 1   
    46    19    20 1   
    47    19    47 1   
    48    20    48 1   
@<TRIPOS>SUBSTRUCTURE
     1 HSJ         1 TEMP              0 ****  ****    0 ROOT
