@<TRIPOS>MOLECULE
HSJ
   48    48     1     0     0
SMALL
No Charge or Current Charge


@<TRIPOS>ATOM
      1 C1A         -0.6800     5.3030   -16.7930 c3         1 HSJ      -0.088100
      2 C2A         -0.2090     4.1980   -15.8280 c3         1 HSJ      -0.074400
      3 C3A         -0.9900     4.1850   -14.4960 c3         1 HSJ      -0.075400
      4 C4A         -0.5170     3.0770   -13.5290 c3         1 HSJ      -0.074400
      5 C5A         -1.2990     3.0640   -12.1970 c3         1 HSJ      -0.073400
      6 C6A         -0.8260     1.9570   -11.2300 c3         1 HSJ      -0.074400
      7 C7          -1.6070     1.9430    -9.8980 c3         1 HSJ      -0.080400
      8 C8          -1.1310     0.8400    -8.9350 c3         1 HSJ       0.163600
      9 O1          -1.9190     0.9410    -7.7400 os         1 HSJ      -0.445000
     10 C1          -1.6000     0.0080    -6.6880 c6         1 HSJ       0.397300
     11 O5          -0.2750     0.2690    -6.1530 os         1 HSJ      -0.478000
     12 C5          -0.1030     1.4590    -5.3290 c6         1 HSJ       0.145300
     13 C6          -0.0900     2.7660    -6.1980 c3         1 HSJ       0.144600
     14 O6           0.2060     3.9170    -5.3900 oh         1 HSJ      -0.720000
     15 C4          -1.1180     1.4600    -4.1340 c6         1 HSJ       0.105300
     16 O4          -1.0300     2.6780    -3.3550 oh         1 HSJ      -0.732000
     17 C3          -2.5890     1.2180    -4.6000 c6         1 HSJ       0.113300
     18 O3          -3.1350     2.3930    -5.2250 oh         1 HSJ      -0.616000
     19 C2          -2.6770    -0.0240    -5.5410 c6         1 HSJ       0.166300
     20 O2          -4.0230    -0.1400    -6.0500 oh         1 HSJ      -0.679000
     21 H1A         -0.5520     6.2940   -16.3410 hc         1 HSJ       0.031367
     22 H2A         -0.0980     5.2720   -17.7220 hc         1 HSJ       0.031367
     23 H3A         -1.7380     5.1710   -17.0470 hc         1 HSJ       0.031367
     24 H4A         -0.3160     3.2240   -16.3220 hc         1 HSJ       0.036200
     25 H5A          0.8600     4.3370   -15.6220 hc         1 HSJ       0.036200
     26 H6          -0.8820     5.1610   -14.0060 hc         1 HSJ       0.037700
     27 H7          -2.0580     4.0480   -14.7070 hc         1 HSJ       0.037700
     28 H8          -0.6250     2.1010   -14.0190 hc         1 HSJ       0.036700
     29 H9           0.5510     3.2140   -13.3190 hc         1 HSJ       0.036700
     30 H10         -1.1910     4.0400   -11.7070 hc         1 HSJ       0.039700
     31 H11         -2.3670     2.9270   -12.4070 hc         1 HSJ       0.039700
     32 H12         -0.9330     0.9800   -11.7200 hc         1 HSJ       0.037200
     33 H13          0.2420     2.0940   -11.0200 hc         1 HSJ       0.037200
     34 H14         -1.4980     2.9180    -9.4050 hc         1 HSJ       0.055200
     35 H15         -2.6750     1.8020   -10.1040 hc         1 HSJ       0.055200
     36 H16         -1.2640    -0.1440    -9.4050 h1         1 HSJ       0.024700
     37 H17         -0.0650     0.9810    -8.7150 h1         1 HSJ       0.024700
     38 H1          -1.5910    -0.9990    -7.1340 h2         1 HSJ       0.071700
     39 H5           0.9030     1.3870    -4.8900 h1         1 HSJ       0.082700
     40 H61          0.6590     2.6510    -6.9930 h1         1 HSJ       0.061700
     41 H62         -1.0640     2.9040    -6.6800 h1         1 HSJ       0.061700
     42 HO6         -0.2030     3.6930    -4.5050 ho         1 HSJ       0.513000
     43 H4          -0.8420     0.6070    -3.4960 h1         1 HSJ       0.043700
     44 HO4         -1.3190     2.4570    -2.4350 ho         1 HSJ       0.514000
     45 H3          -3.1820     0.9940    -3.7020 h1         1 HSJ       0.018700
     46 HO3         -2.7970     3.1480    -4.6930 ho         1 HSJ       0.446000
     47 H2          -2.4530    -0.9100    -4.9300 h1         1 HSJ       0.036700
     48 HO2         -4.2610     0.7890    -6.2840 ho         1 HSJ       0.503000
@<TRIPOS>BOND
     1     1     2 1   
     2     1    21 1   
     3     1    22 1   
     4     1    23 1   
     5     2     3 1   
     6     2    24 1   
     7     2    25 1   
     8     3     4 1   
     9     3    26 1   
    10     3    27 1   
    11     4     5 1   
    12     4    28 1   
    13     4    29 1   
    14     5     6 1   
    15     5    30 1   
    16     5    31 1   
    17     6     7 1   
    18     6    32 1   
    19     6    33 1   
    20     7     8 1   
    21     7    34 1   
    22     7    35 1   
    23     8     9 1   
    24     8    36 1   
    25     8    37 1   
    26     9    10 1   
    27    10    11 1   
    28    10    19 1   
    29    10    38 1   
    30    11    12 1   
    31    12    13 1   
    32    12    15 1   
    33    12    39 1   
    34    13    14 1   
    35    13    40 1   
    36    13    41 1   
    37    14    42 1   
    38    15    16 1   
    39    15    17 1   
    40    15    43 1   
    41    16    44 1   
    42    17    18 1   
    43    17    19 1   
    44    17    45 1   
    45    18    46 1   
    46    19    20 1   
    47    19    47 1   
    48    20    48 1   
@<TRIPOS>SUBSTRUCTURE
     1 HSJ         1 TEMP              0 ****  ****    0 ROOT
