@<TRIPOS>MOLECULE
HSK
   20    20     1     0     0
SMALL
No Charge or Current Charge


@<TRIPOS>ATOM
      1 C            6.5040   -38.8020    59.7390 c          1 HSK       0.721000
      2 OXT          7.5040   -38.0970    59.7870 o          1 HSK      -0.714000
      3 CA           6.7010   -40.3720    59.6210 c3         1 HSK       0.000500
      4 N            5.4980   -41.2540    59.8970 n8         1 HSK      -1.014200
      5 CB           7.3640   -40.7390    58.2640 c3         1 HSK       0.026900
      6 CG           6.6260   -40.2270    57.0490 cc         1 HSK      -0.187300
      7 CD2          7.0590   -39.3700    56.0640 cd         1 HSK       0.229900
      8 NE2          6.0640   -39.1320    55.1320 nd         1 HSK      -0.708000
      9 CE1          5.0200   -39.8410    55.5470 cc         1 HSK       0.370400
     10 ND1          5.3310   -40.5300    56.7090 na         1 HSK       0.052500
     11 OM           4.4860   -41.3570    57.4500 oh         1 HSK      -0.612000
     12 O            5.3690   -38.3580    59.8680 o          1 HSK      -0.714000
     13 H2           7.4250   -40.6230    60.4090 h1         1 HSK       0.023700
     14 H3           5.8250   -42.1790    60.2140 hn         1 HSK       0.415500
     15 H4           5.0180   -40.8910    60.7350 hn         1 HSK       0.415500
     16 H6           7.4780   -41.8280    58.1960 hc         1 HSK       0.042700
     17 H7           8.3840   -40.3340    58.2580 hc         1 HSK       0.042700
     18 H8           8.0350   -38.9060    55.9780 h4         1 HSK       0.033100
     19 H10          4.0470   -39.9040    55.0730 h5         1 HSK       0.042100
     20 H11          4.8480   -41.2790    58.3920 ho         1 HSK       0.534000
@<TRIPOS>BOND
     1     1     2 1   
     2     1     3 1   
     3     1    12 1   
     4     3     4 1   
     5     3     5 1   
     6     3    13 1   
     7     4    14 1   
     8     4    15 1   
     9     5     6 1   
    10     5    16 1   
    11     5    17 1   
    12     6     7 2   
    13     6    10 1   
    14     7     8 1   
    15     7    18 1   
    16     8     9 2   
    17     9    10 1   
    18     9    19 1   
    19    10    11 1   
    20    11    20 1   
@<TRIPOS>SUBSTRUCTURE
     1 HSK         1 TEMP              0 ****  ****    0 ROOT
