@<TRIPOS>MOLECULE
HSK
   20    20     1     0     0
SMALL
bcc


@<TRIPOS>ATOM
      1 C            6.6690   -38.8930    59.8310 c          1 HSK       0.931600
      2 OXT          7.7180   -38.2540    59.6460 o          1 HSK      -0.819300
      3 CA           6.7650   -40.4260    59.6010 c3         1 HSK       0.000500
      4 N            5.4400   -41.0530    59.7090 n8         1 HSK      -0.903800
      5 CB           7.4130   -40.7490    58.2480 c3         1 HSK       0.026900
      6 CG           6.6570   -40.2060    57.0850 cc         1 HSK      -0.201900
      7 CD2          6.9160   -39.2080    56.1790 cd         1 HSK       0.295200
      8 NE2          5.8850   -39.0650    55.3000 nd         1 HSK      -0.708000
      9 CE1          4.9870   -39.9530    55.6640 cc         1 HSK       0.370400
     10 ND1          5.4190   -40.6560    56.7250 na         1 HSK      -0.038000
     11 OM           4.7460   -41.6630    57.3190 oh         1 HSK      -0.533200
     12 O            5.5620   -38.4510    60.1960 o          1 HSK      -0.819300
     13 H2           7.4270   -40.8250    60.3790 h1         1 HSK       0.023700
     14 H3           5.4730   -41.8800    60.2910 hn         1 HSK       0.360300
     15 H4           4.8300   -40.3780    60.1630 hn         1 HSK       0.360300
     16 H6           7.5260   -41.8340    58.1510 hc         1 HSK       0.042700
     17 H7           8.4190   -40.3330    58.2260 hc         1 HSK       0.042700
     18 H8           7.8010   -38.5910    56.1320 h4         1 HSK       0.033100
     19 H10          4.0300   -40.1350    55.1990 h5         1 HSK       0.042100
     20 H11          4.9040   -41.4710    58.3390 ho         1 HSK       0.495000
@<TRIPOS>BOND
     1     1     2 1   
     2     1     3 1   
     3     1    12 1   
     4     3     4 1   
     5     3     5 1   
     6     3    13 1   
     7     4    14 1   
     8     4    15 1   
     9     5     6 1   
    10     5    16 1   
    11     5    17 1   
    12     6     7 2   
    13     6    10 1   
    14     7     8 1   
    15     7    18 1   
    16     8     9 2   
    17     9    10 1   
    18     9    19 1   
    19    10    11 1   
    20    11    20 1   
@<TRIPOS>SUBSTRUCTURE
     1 HSK         1 TEMP              0 ****  ****    0 ROOT
