@<TRIPOS>MOLECULE
HSL
   14    14     1     0     0
SMALL
No Charge or Current Charge


@<TRIPOS>ATOM
      1 N            1.3440     1.6930    -0.0870 n8         1 HSL      -0.873800
      2 CA           0.3280     0.7220     0.4350 c5         1 HSL       0.063500
      3 C            0.4450    -0.7800    -0.0090 c          1 HSL       0.682600
      4 O            1.4530    -1.3660    -0.3870 o          1 HSL      -0.568500
      5 CB          -1.1080     1.0860    -0.0090 c5         1 HSL      -0.113400
      6 CG          -1.7930    -0.2870     0.2090 c5         1 HSL       0.128400
      7 OD          -0.8170    -1.2530    -0.2440 os         1 HSL      -0.398900
      8 H            2.2870     1.3610     0.1500 hn         1 HSL       0.359300
      9 H2           1.3340     1.6830    -1.1140 hn         1 HSL       0.359300
     10 HA           0.3940     0.7180     1.5330 h1         1 HSL       0.087700
     11 HB2         -1.5560     1.8850     0.5920 hc         1 HSL       0.072200
     12 HB3         -1.1560     1.3850    -1.0630 hc         1 HSL       0.072200
     13 HG2         -2.0000    -0.4670     1.2730 h1         1 HSL       0.064700
     14 HG3         -2.7290    -0.4000    -0.3550 h1         1 HSL       0.064700
@<TRIPOS>BOND
     1     1     2 1   
     2     1     8 1   
     3     1     9 1   
     4     2     3 1   
     5     2     5 1   
     6     2    10 1   
     7     3     4 2   
     8     3     7 1   
     9     5     6 1   
    10     5    11 1   
    11     5    12 1   
    12     6     7 1   
    13     6    13 1   
    14     6    14 1   
@<TRIPOS>SUBSTRUCTURE
     1 HSL         1 TEMP              0 ****  ****    0 ROOT
