@<TRIPOS>MOLECULE
HSL
   14    14     1     0     0
SMALL
bcc


@<TRIPOS>ATOM
      1 N            1.3210     1.6450    -0.1390 n8         1 HSL      -0.873800
      2 CA           0.3400     0.7390     0.3940 c5         1 HSL       0.063500
      3 C            0.4350    -0.7120    -0.0680 c          1 HSL       0.682600
      4 O            1.4230    -1.3390    -0.3360 o          1 HSL      -0.568500
      5 CB          -1.1020     1.0750     0.0440 c5         1 HSL      -0.113400
      6 CG          -1.7860    -0.2740     0.2020 c5         1 HSL       0.128400
      7 OD          -0.7840    -1.2450    -0.1500 os         1 HSL      -0.398900
      8 H            2.2480     1.3840     0.1720 hn         1 HSL       0.359300
      9 H2           1.3340     1.6020    -1.1510 hn         1 HSL       0.359300
     10 HA           0.4480     0.7180     1.4850 h1         1 HSL       0.087700
     11 HB2         -1.5380     1.8380     0.6850 hc         1 HSL       0.072200
     12 HB3         -1.1700     1.4200    -0.9910 hc         1 HSL       0.072200
     13 HG2         -2.1010    -0.4540     1.2320 h1         1 HSL       0.064700
     14 HG3         -2.6410    -0.4160    -0.4550 h1         1 HSL       0.064700
@<TRIPOS>BOND
     1     1     2 1   
     2     1     8 1   
     3     1     9 1   
     4     2     3 1   
     5     2     5 1   
     6     2    10 1   
     7     3     4 2   
     8     3     7 1   
     9     5     6 1   
    10     5    11 1   
    11     5    12 1   
    12     6     7 1   
    13     6    13 1   
    14     6    14 1   
@<TRIPOS>SUBSTRUCTURE
     1 HSL         1 TEMP              0 ****  ****    0 ROOT
