@<TRIPOS>MOLECULE
HSM
   17    17     1     0     0
SMALL
No Charge or Current Charge


@<TRIPOS>ATOM
      1 N           -0.0330     5.2550    10.6660 n8         1 HSM      -0.992200
      2 CA          -0.9150     6.2410    10.0130 c3         1 HSM       0.154800
      3 CB          -2.0380     5.5740     9.1900 c3         1 HSM      -0.091700
      4 CG          -3.1050     4.8750     9.9970 cc         1 HSM       0.263300
      5 ND1         -4.0220     4.0720     9.3770 nc         1 HSM      -0.669000
      6 CD2         -3.3400     4.9320    11.3460 cd         1 HSM      -0.230000
      7 CE1         -4.8280     3.6150    10.3270 cd         1 HSM       0.390400
      8 NE2         -4.4440     4.1210    11.5540 na         1 HSM      -0.309500
      9 H1           0.7380     5.7510    11.1280 hn         1 HSM       0.391500
     10 H2           0.4380     4.6990     9.9430 hn         1 HSM       0.391500
     11 HA1         -1.3500     6.8990    10.7780 h1         1 HSM       0.024200
     12 HA2         -0.2990     6.8570     9.3440 h1         1 HSM       0.024200
     13 HB1         -2.5180     6.3520     8.5850 hc         1 HSM       0.049700
     14 HB2         -1.5910     4.8700     8.4780 hc         1 HSM       0.049700
     15 HD2         -2.8210     5.4660    12.1340 h4         1 HSM       0.152000
     16 HE1         -5.6740     2.9480    10.2070 h5         1 HSM       0.053100
     17 HE2         -4.9030     3.9210    12.4360 hn         1 HSM       0.349000
@<TRIPOS>BOND
     1     1     2 1   
     2     1     9 1   
     3     1    10 1   
     4     2     3 1   
     5     2    11 1   
     6     2    12 1   
     7     3     4 1   
     8     3    13 1   
     9     3    14 1   
    10     4     5 1   
    11     4     6 2   
    12     5     7 2   
    13     6     8 1   
    14     6    15 1   
    15     7     8 1   
    16     7    16 1   
    17     8    17 1   
@<TRIPOS>SUBSTRUCTURE
     1 HSM         1 TEMP              0 ****  ****    0 ROOT
