@<TRIPOS>MOLECULE
HSM
   17    17     1     0     0
SMALL
abcg2


@<TRIPOS>ATOM
      1 N           -0.0800     4.8020    10.3120 n8         1 HSM      -0.992200
      2 CA          -0.7670     6.0820    10.1060 c3         1 HSM       0.154800
      3 CB          -2.0880     5.9000     9.3500 c3         1 HSM      -0.091700
      4 CG          -3.0990     5.0610    10.0630 cc         1 HSM       0.263300
      5 ND1         -3.3520     3.7470     9.7110 nc         1 HSM      -0.669000
      6 CD2         -3.8880     5.4010    11.1340 cd         1 HSM      -0.230000
      7 CE1         -4.2690     3.3110    10.5550 cd         1 HSM       0.390400
      8 NE2         -4.6220     4.2770    11.4340 na         1 HSM      -0.309500
      9 H1           0.7850     4.9550    10.8200 hn         1 HSM       0.391500
     10 H2           0.1870     4.4120     9.4120 hn         1 HSM       0.391500
     11 HA1         -0.9740     6.5160    11.0880 h1         1 HSM       0.024200
     12 HA2         -0.1560     6.8100     9.5550 h1         1 HSM       0.024200
     13 HB1         -2.4990     6.8940     9.1550 hc         1 HSM       0.049700
     14 HB2         -1.8820     5.4460     8.3770 hc         1 HSM       0.049700
     15 HD2         -3.9910     6.3170    11.6900 h4         1 HSM       0.152000
     16 HE1         -4.7050     2.3250    10.5690 h5         1 HSM       0.053100
     17 HE2         -5.3050     4.1920    12.1710 hn         1 HSM       0.349000
@<TRIPOS>BOND
     1     1     2 1   
     2     1     9 1   
     3     1    10 1   
     4     2     3 1   
     5     2    11 1   
     6     2    12 1   
     7     3     4 1   
     8     3    13 1   
     9     3    14 1   
    10     4     5 1   
    11     4     6 2   
    12     5     7 2   
    13     6     8 1   
    14     6    15 1   
    15     7     8 1   
    16     7    16 1   
    17     8    17 1   
@<TRIPOS>SUBSTRUCTURE
     1 HSM         1 TEMP              0 ****  ****    0 ROOT
