@<TRIPOS>MOLECULE
HSO
   22    22     1     0     0
SMALL
bcc


@<TRIPOS>ATOM
      1 N          -13.3400    21.0140    15.1970 n8         1 HSO      -0.868800
      2 CA         -12.8890    22.1430    15.9950 c3         1 HSO       0.173500
      3 CB         -13.8760    22.3960    17.1440 c3         1 HSO      -0.029100
      4 CG         -15.2260    22.7860    16.6650 cc         1 HSO      -0.053600
      5 ND1        -15.5060    24.0190    16.1230 na         1 HSO      -0.128100
      6 CD2        -16.3900    22.0890    16.6050 cd         1 HSO      -0.116300
      7 CE1        -16.7740    24.0810    15.7550 cc         1 HSO      -0.026600
      8 NE2        -17.3250    22.9170    16.0400 na         1 HSO      -0.113100
      9 C          -11.4900    21.8950    16.5360 c3         1 HSO       0.146400
     10 O          -11.4950    20.8030    17.4230 oh         1 HSO      -0.584800
     11 HN1        -14.2260    21.2310    14.7590 hn         1 HSO       0.345800
     12 HN2        -12.6910    20.8650    14.4340 hn         1 HSO       0.345800
     13 HA         -12.8100    23.0750    15.4130 h1         1 HSO       0.005700
     14 HB2        -13.9740    21.4980    17.7530 hc         1 HSO       0.102200
     15 HB3        -13.4800    23.1860    17.7870 hc         1 HSO       0.102200
     16 HD1        -14.8470    24.7800    16.0240 hn         1 HSO       0.358700
     17 HD2        -16.6210    21.0860    16.9190 h4         1 HSO       0.238000
     18 HE1        -17.2670    24.9280    15.3090 h5         1 HSO       0.253000
     19 HE2        -18.2940    22.6830    15.8680 hn         1 HSO       0.364700
     20 H1         -10.8160    21.7230    15.6840 h1         1 HSO       0.030700
     21 H2         -11.1490    22.8170    17.0250 h1         1 HSO       0.030700
     22 HO         -10.5980    20.6730    17.7430 ho         1 HSO       0.422000
@<TRIPOS>BOND
     1     1     2 1   
     2     1    11 1   
     3     1    12 1   
     4     2     3 1   
     5     2     9 1   
     6     2    13 1   
     7     3     4 1   
     8     3    14 1   
     9     3    15 1   
    10     4     5 1   
    11     4     6 2   
    12     5     7 2   
    13     5    16 1   
    14     6     8 1   
    15     6    17 1   
    16     7     8 1   
    17     7    18 1   
    18     8    19 1   
    19     9    10 1   
    20     9    20 1   
    21     9    21 1   
    22    10    22 1   
@<TRIPOS>SUBSTRUCTURE
     1 HSO         1 TEMP              0 ****  ****    0 ROOT
