@<TRIPOS>MOLECULE
HSO
   22    22     1     0     0
SMALL
No Charge or Current Charge


@<TRIPOS>ATOM
      1 N          -13.3320    20.9950    15.1610 n8         1 HSO      -0.979200
      2 CA         -12.8600    22.1030    16.0300 c3         1 HSO       0.173500
      3 CB         -13.8950    22.4040    17.1450 c3         1 HSO      -0.029100
      4 CG         -15.2490    22.8260    16.6250 cc         1 HSO      -0.104300
      5 ND1        -15.5250    24.0870    16.0820 na         1 HSO      -0.127700
      6 CD2        -16.4220    22.0960    16.6010 cd         1 HSO      -0.149000
      7 CE1        -16.8600    24.1360    15.7150 cc         1 HSO      -0.059300
      8 NE2        -17.3830    22.9120    16.0420 na         1 HSO      -0.062000
      9 C          -11.4170    21.8650    16.5900 c3         1 HSO       0.169600
     10 O          -11.3590    20.7360    17.4840 oh         1 HSO      -0.647000
     11 HN1        -14.2630    21.2370    14.8050 hn         1 HSO       0.401000
     12 HN2        -12.7510    20.9610    14.3160 hn         1 HSO       0.401000
     13 HA         -12.8090    22.9930    15.3890 h1         1 HSO       0.005700
     14 HB2        -14.0040    21.5170    17.7810 hc         1 HSO       0.102200
     15 HB3        -13.4960    23.1910    17.7960 hc         1 HSO       0.102200
     16 HD1        -14.8580    24.8480    15.9750 hn         1 HSO       0.409000
     17 HD2        -16.6290    21.0820    16.9340 h4         1 HSO       0.220000
     18 HE1        -17.3870    24.9740    15.2650 h5         1 HSO       0.235000
     19 HE2        -18.3530    22.6420    15.8950 hn         1 HSO       0.415000
     20 H1         -10.7310    21.7130    15.7450 h1         1 HSO       0.030700
     21 H2         -11.0890    22.7730    17.1130 h1         1 HSO       0.030700
     22 HO         -10.4120    20.5980    17.7090 ho         1 HSO       0.461000
@<TRIPOS>BOND
     1     1     2 1   
     2     1    11 1   
     3     1    12 1   
     4     2     3 1   
     5     2     9 1   
     6     2    13 1   
     7     3     4 1   
     8     3    14 1   
     9     3    15 1   
    10     4     5 1   
    11     4     6 2   
    12     5     7 2   
    13     5    16 1   
    14     6     8 1   
    15     6    17 1   
    16     7     8 1   
    17     7    18 1   
    18     8    19 1   
    19     9    10 1   
    20     9    20 1   
    21     9    21 1   
    22    10    22 1   
@<TRIPOS>SUBSTRUCTURE
     1 HSO         1 TEMP              0 ****  ****    0 ROOT
