@<TRIPOS>MOLECULE
HSQ
   30    30     1     0     0
SMALL
No Charge or Current Charge


@<TRIPOS>ATOM
      1 C1          32.4770   -25.2940     8.3840 c6         1 HSQ       0.384300
      2 C2          30.9170   -25.4200     8.5600 c6         1 HSQ       0.052700
      3 C3          30.5460   -25.6450    10.0680 c6         1 HSQ       0.160300
      4 C4          31.6010   -26.5460    10.7630 c6         1 HSQ       0.106300
      5 C5          33.0060   -25.8380    10.7300 c6         1 HSQ       0.146300
      6 C6          33.3530   -25.0470    12.0400 c3         1 HSQ       0.167600
      7 C8          28.3570   -25.3920     6.9070 c3         1 HSQ      -0.181100
      8 N2          30.2300   -24.2030     8.0510 ns         1 HSQ      -0.510900
      9 O3          29.2570   -26.2580    10.2050 oh         1 HSQ      -0.659000
     10 O4          31.1690   -26.9240    12.0930 oh         1 HSQ      -0.725000
     11 O5          33.0860   -24.8870     9.6240 os         1 HSQ      -0.419000
     12 O6          34.6160   -24.3530    11.9740 oh         1 HSQ      -0.706000
     13 O7          28.4000   -23.0470     7.4430 o          1 HSQ      -0.598100
     14 O1          33.0740   -26.5350     7.9920 oh         1 HSQ      -0.684000
     15 H1          32.6890   -24.5320     7.6160 h2         1 HSQ       0.082700
     16 H2          30.5870   -26.2930     7.9810 h1         1 HSQ       0.075700
     17 H3          30.5510   -24.6710    10.5810 h1         1 HSQ       0.056700
     18 H4          31.6900   -27.4580    10.1520 h1         1 HSQ       0.058700
     19 H5          33.7800   -26.6060    10.5870 h1         1 HSQ       0.067700
     20 H61         32.5410   -24.3320    12.2330 h1         1 HSQ       0.029700
     21 H62         33.3700   -25.7550    12.8790 h1         1 HSQ       0.029700
     22 H81         27.4100   -25.1960     6.3930 hc         1 HSQ       0.062367
     23 H82         29.0880   -25.8620     6.2390 hc         1 HSQ       0.062367
     24 H83         28.2310   -26.1440     7.6920 hc         1 HSQ       0.062367
     25 HN2         30.6040   -23.3080     8.3460 hn         1 HSQ       0.317500
     26 HO3         29.3040   -26.6990    11.0850 ho         1 HSQ       0.465000
     27 HO4         31.7100   -27.7020    12.3720 ho         1 HSQ       0.516000
     28 HO6         34.7060   -23.8410    12.8110 ho         1 HSQ       0.502000
     29 HO1         32.8420   -26.6610     7.0460 ho         1 HSQ       0.463000
     30 C7          28.9670   -24.1260     7.5090 c          1 HSQ       0.614100
@<TRIPOS>BOND
     1     1     2 1   
     2     1    11 1   
     3     1    14 1   
     4     1    15 1   
     5     2     3 1   
     6     2     8 1   
     7     2    16 1   
     8     3     4 1   
     9     3     9 1   
    10     3    17 1   
    11     4     5 1   
    12     4    10 1   
    13     4    18 1   
    14     5     6 1   
    15     5    11 1   
    16     5    19 1   
    17     6    12 1   
    18     6    20 1   
    19     6    21 1   
    20     7    22 1   
    21     7    23 1   
    22     7    24 1   
    23     7    30 1   
    24     8    25 1   
    25     8    30 1   
    26     9    26 1   
    27    10    27 1   
    28    12    28 1   
    29    13    30 2   
    30    14    29 1   
@<TRIPOS>SUBSTRUCTURE
     1 HSQ         1 TEMP              0 ****  ****    0 ROOT
