@<TRIPOS>MOLECULE
HSQ
   30    30     1     0     0
SMALL
abcg2


@<TRIPOS>ATOM
      1 C1          32.3870   -25.2340     8.4580 c6         1 HSQ       0.384300
      2 C2          30.8600   -25.3800     8.6980 c6         1 HSQ       0.052700
      3 C3          30.5750   -25.6500    10.1730 c6         1 HSQ       0.160300
      4 C4          31.6540   -26.5660    10.7360 c6         1 HSQ       0.106300
      5 C5          33.0170   -25.8350    10.6820 c6         1 HSQ       0.146300
      6 C6          33.3200   -25.0680    11.9560 c3         1 HSQ       0.167600
      7 C8          28.5700   -25.4710     6.8520 c3         1 HSQ      -0.181100
      8 N2          30.1460   -24.2130     8.2360 ns         1 HSQ      -0.510900
      9 O3          29.2930   -26.2150    10.2610 oh         1 HSQ      -0.659000
     10 O4          31.2710   -26.9140    12.0460 oh         1 HSQ      -0.725000
     11 O5          33.0480   -24.8810     9.6220 os         1 HSQ      -0.419000
     12 O6          34.5630   -24.4250    11.7930 oh         1 HSQ      -0.706000
     13 O7          28.4820   -23.1110     7.2170 o          1 HSQ      -0.598100
     14 O1          32.9630   -26.4160     7.9790 oh         1 HSQ      -0.684000
     15 H1          32.5530   -24.4050     7.7570 h2         1 HSQ       0.082700
     16 H2          30.5090   -26.2420     8.1290 h1         1 HSQ       0.075700
     17 H3          30.6120   -24.6930    10.7170 h1         1 HSQ       0.056700
     18 H4          31.7040   -27.4650    10.1090 h1         1 HSQ       0.058700
     19 H5          33.8150   -26.5730    10.5310 h1         1 HSQ       0.067700
     20 H61         32.5160   -24.3480    12.1610 h1         1 HSQ       0.029700
     21 H62         33.3440   -25.7720    12.7930 h1         1 HSQ       0.029700
     22 H81         27.6870   -25.2840     6.2460 hc         1 HSQ       0.062367
     23 H82         29.3320   -25.9270     6.2190 hc         1 HSQ       0.062367
     24 H83         28.3140   -26.1910     7.6280 hc         1 HSQ       0.062367
     25 HN2         30.4130   -23.3290     8.6490 hn         1 HSQ       0.317500
     26 HO3         29.1080   -26.3940    11.1890 ho         1 HSQ       0.465000
     27 HO4         31.7110   -27.7310    12.2970 ho         1 HSQ       0.516000
     28 HO6         34.7960   -24.0150    12.6310 ho         1 HSQ       0.502000
     29 HO1         32.5480   -26.6600     7.1440 ho         1 HSQ       0.463000
     30 C7          29.0490   -24.1690     7.4460 c          1 HSQ       0.614100
@<TRIPOS>BOND
     1     1     2 1   
     2     1    11 1   
     3     1    14 1   
     4     1    15 1   
     5     2     3 1   
     6     2     8 1   
     7     2    16 1   
     8     3     4 1   
     9     3     9 1   
    10     3    17 1   
    11     4     5 1   
    12     4    10 1   
    13     4    18 1   
    14     5     6 1   
    15     5    11 1   
    16     5    19 1   
    17     6    12 1   
    18     6    20 1   
    19     6    21 1   
    20     7    22 1   
    21     7    23 1   
    22     7    24 1   
    23     7    30 1   
    24     8    25 1   
    25     8    30 1   
    26     9    26 1   
    27    10    27 1   
    28    12    28 1   
    29    13    30 2   
    30    14    29 1   
@<TRIPOS>SUBSTRUCTURE
     1 HSQ         1 TEMP              0 ****  ****    0 ROOT
