@<TRIPOS>MOLECULE
HSS
   54    57     1     0     0
SMALL
abcg2


@<TRIPOS>ATOM
      1 C4          -3.2050    -1.0510    -0.2320 ca         1 HSS       0.152500
      2 C5          -2.3890    -2.1660    -0.1420 ca         1 HSS      -0.101600
      3 C6          -2.9200    -3.3720    -0.6370 ca         1 HSS       0.448900
      4 C8          -1.2800    -0.5700     0.6850 cc         1 HSS       0.407700
      5 N1          -4.1520    -3.3430    -1.1560 nb         1 HSS      -0.295000
      6 N3          -4.4310    -1.0080    -0.7450 nb         1 HSS      -0.211000
      7 N11          4.0700    -3.7230     0.1680 na         1 HSS      -0.284500
      8 CE1          4.9450    -4.4860     0.8510 cc         1 HSS       0.389400
      9 N12          6.0020    -3.8000     1.2100 nd         1 HSS      -0.676000
     10 CD2          5.7870    -2.5340     0.7410 cd         1 HSS       0.231900
     11 CG           4.5850    -2.4610     0.0880 cc         1 HSS      -0.218300
     12 CB           3.9080    -1.3370    -0.6130 c3         1 HSS       0.006900
     13 CA           2.4120    -1.2270    -0.2600 c3         1 HSS       0.093500
     14 N            1.7010    -2.3850    -0.7420 n8         1 HSS      -1.028200
     15 C            1.8890     0.0920    -0.8300 c          1 HSS       0.584100
     16 O            1.2470     0.1860    -1.8440 o          1 HSS      -0.511100
     17 N1S          2.2540     1.2000    -0.0850 ns         1 HSS      -0.627300
     18 S            2.1520     2.7680    -0.6370 s6         1 HSS       1.433500
     19 O2S          2.7650     3.5670     0.3950 o          1 HSS      -0.534500
     20 O3S          2.5860     2.8400    -2.0030 o          1 HSS      -0.534500
     21 O5           0.5940     3.0390    -0.6940 os         1 HSS      -0.542700
     22 C7          -1.5920     3.3040     0.1750 c5         1 HSS       0.166300
     23 O4          -2.0040     2.1000    -0.4640 os         1 HSS      -0.421000
     24 C3          -2.4730     3.4490     1.4110 c5         1 HSS       0.110300
     25 O3          -3.6530     4.1020     1.0330 oh         1 HSS      -0.697000
     26 C2          -2.7410     1.9820     1.7590 c5         1 HSS       0.083300
     27 O2          -3.9150     1.7540     2.4770 oh         1 HSS      -0.690000
     28 C1          -2.8570     1.3580     0.3670 c5         1 HSS       0.310300
     29 N9          -2.4790    -0.0290     0.3150 na         1 HSS      -0.281300
     30 N7          -1.1870    -1.8410     0.4330 nd         1 HSS      -0.577100
     31 C10         -4.8200    -2.1930    -1.1820 ca         1 HSS       0.189900
     32 N6          -2.2400    -4.5200    -0.6250 nv         1 HSS      -1.058900
     33 H8          -0.5010     0.0210     1.1450 h5         1 HSS       0.053800
     34 HE1          4.7620    -5.5280     1.0610 h5         1 HSS       0.053100
     35 HD2          6.5000    -1.7380     0.8920 h4         1 HSS       0.033100
     36 HB2          3.9940    -1.4500    -1.6990 hc         1 HSS       0.063700
     37 HA           2.3180    -1.1920     0.8300 h1         1 HSS       0.077700
     38 HN1          0.7500    -2.3890    -0.3860 hn         1 HSS       0.434000
     39 HN2          1.6460    -2.3710    -1.7530 hn         1 HSS       0.434000
     40 HN1S         2.7600     1.0830     0.7860 hn         1 HSS       0.345500
     41 H4          -1.7500     4.1390    -0.5130 h1         1 HSS       0.119700
     42 H3          -1.9580     3.9740     2.2270 h1         1 HSS       0.056700
     43 HO3         -4.3360     3.8880     1.6800 ho         1 HSS       0.527000
     44 H2          -1.8680     1.5740     2.2840 h1         1 HSS       0.045700
     45 HO2         -3.7360     1.8750     3.4150 ho         1 HSS       0.518000
     46 H1          -3.8930     1.4070     0.0170 h2         1 HSS       0.131700
     47 H6          -5.8110    -2.2400    -1.6190 h5         1 HSS       0.051100
     48 HN61        -1.3690    -4.5950    -0.1300 hn         1 HSS       0.503500
     49 HN62        -2.6990    -5.3740    -0.8920 hn         1 HSS       0.503500
     50 C9          -0.1230     3.2430     0.5380 c3         1 HSS       0.184600
     51 HB1          4.4350    -0.4160    -0.3570 hc         1 HSS       0.063700
     52 HN11         3.1470    -3.9640    -0.1720 hn         1 HSS       0.377000
     53 H5'1         0.0900     2.4310     1.2400 h1         1 HSS       0.051200
     54 H5'2         0.1830     4.1850     0.9930 h1         1 HSS       0.051200
@<TRIPOS>BOND
     1     1     2 ar  
     2     1     6 ar  
     3     1    29 1   
     4     2     3 ar  
     5     2    30 1   
     6     3     5 ar  
     7     3    32 1   
     8     4    29 1   
     9     4    30 2   
    10     4    33 1   
    11     5    31 ar  
    12     6    31 ar  
    13     7     8 1   
    14     7    11 1   
    15     7    52 1   
    16     8     9 2   
    17     8    34 1   
    18     9    10 1   
    19    10    11 2   
    20    10    35 1   
    21    11    12 1   
    22    12    13 1   
    23    12    36 1   
    24    12    51 1   
    25    13    14 1   
    26    13    15 1   
    27    13    37 1   
    28    14    38 1   
    29    14    39 1   
    30    15    16 2   
    31    15    17 1   
    32    17    18 1   
    33    17    40 1   
    34    18    19 2   
    35    18    20 2   
    36    18    21 1   
    37    21    50 1   
    38    22    23 1   
    39    22    24 1   
    40    22    41 1   
    41    22    50 1   
    42    23    28 1   
    43    24    25 1   
    44    24    26 1   
    45    24    42 1   
    46    25    43 1   
    47    26    27 1   
    48    26    28 1   
    49    26    44 1   
    50    27    45 1   
    51    28    29 1   
    52    28    46 1   
    53    31    47 1   
    54    32    48 1   
    55    32    49 1   
    56    50    53 1   
    57    50    54 1   
@<TRIPOS>SUBSTRUCTURE
     1 HSS         1 TEMP              0 ****  ****    0 ROOT
