@<TRIPOS>MOLECULE
HSS
   54    57     1     0     0
SMALL
No Charge or Current Charge


@<TRIPOS>ATOM
      1 C4          -2.9480    -0.9090    -0.2950 ca         1 HSS       0.152500
      2 C5          -2.1550    -1.9990    -0.0380 ca         1 HSS      -0.101600
      3 C6          -2.4170    -3.1900    -0.7460 ca         1 HSS       0.448900
      4 C8          -1.4200    -0.4470     1.2580 cc         1 HSS       0.407700
      5 N1          -3.4120    -3.2610    -1.6440 nb         1 HSS      -0.295000
      6 N3          -3.9540    -0.9440    -1.1900 nb         1 HSS      -0.211000
      7 N11          3.9460    -3.8540     0.4300 na         1 HSS      -0.284500
      8 CE1          4.9150    -4.5880     1.0650 cc         1 HSS       0.389400
      9 N12          6.0930    -3.9920     0.9460 nd         1 HSS      -0.676000
     10 CD2          5.8660    -2.8410     0.2150 cd         1 HSS       0.231900
     11 CG           4.5380    -2.7380    -0.1170 cc         1 HSS      -0.218300
     12 CB           3.8100    -1.6700    -0.9030 c3         1 HSS       0.006900
     13 CA           2.4150    -1.2770    -0.3330 c3         1 HSS       0.093500
     14 N            1.4460    -2.4310    -0.4310 n8         1 HSS      -1.028200
     15 C            1.9370     0.0640    -0.9970 c          1 HSS       0.584100
     16 O            1.4080     0.0940    -2.0980 o          1 HSS      -0.511100
     17 N1S          2.1300     1.1800    -0.2400 ns         1 HSS      -0.627300
     18 S            2.0310     2.7660    -0.7280 s6         1 HSS       1.433500
     19 O2S          2.5710     3.5880     0.3590 o          1 HSS      -0.534500
     20 O3S          2.5540     2.8770    -2.0930 o          1 HSS      -0.534500
     21 O5           0.3970     2.9280    -0.7720 os         1 HSS      -0.542700
     22 C7          -1.7830     3.4130     0.1890 c5         1 HSS       0.166300
     23 O4          -2.4150     2.2570    -0.4180 os         1 HSS      -0.421000
     24 C3          -2.6470     3.6820     1.4620 c5         1 HSS       0.110300
     25 O3          -3.9130     4.2870     1.1720 oh         1 HSS      -0.697000
     26 C2          -2.8600     2.2280     1.9700 c5         1 HSS       0.083300
     27 O2          -4.0120     2.1560     2.8350 oh         1 HSS      -0.690000
     28 C1          -3.0220     1.4420     0.6120 c5         1 HSS       0.310300
     29 N9          -2.4860     0.0830     0.5230 na         1 HSS      -0.281300
     30 N7          -1.1860    -1.7320     0.9340 nd         1 HSS      -0.577100
     31 C10         -4.1340    -2.1280    -1.8230 ca         1 HSS       0.189900
     32 N6          -1.6970    -4.3280    -0.5580 nv         1 HSS      -1.058900
     33 H8          -0.8620     0.1300     1.9850 h5         1 HSS       0.053800
     34 HE1          4.7030    -5.5180     1.5820 h5         1 HSS       0.053100
     35 HD2          6.6680    -2.1550    -0.0330 h4         1 HSS       0.033100
     36 HB2          3.6970    -1.9920    -1.9460 hc         1 HSS       0.063700
     37 HA           2.5540    -1.0620     0.7360 h1         1 HSS       0.077700
     38 HN1          0.5530    -2.1720     0.0250 hn         1 HSS       0.434000
     39 HN2          1.1610    -2.5430    -1.4120 hn         1 HSS       0.434000
     40 HN1S         2.5810     1.1120     0.6560 hn         1 HSS       0.345500
     41 H4          -1.8350     4.2610    -0.5070 h1         1 HSS       0.119700
     42 H3          -2.0990     4.2860     2.2000 h1         1 HSS       0.056700
     43 HO3         -4.5310     3.8290     1.7970 ho         1 HSS       0.527000
     44 H2          -1.9660     1.9010     2.5170 h1         1 HSS       0.045700
     45 HO2         -3.9620     1.3080     3.3400 ho         1 HSS       0.518000
     46 H1          -4.0940     1.3500     0.3880 h2         1 HSS       0.131700
     47 H6          -4.9430    -2.1740    -2.5500 h5         1 HSS       0.051100
     48 HN61        -1.0900    -4.3550     0.2570 hn         1 HSS       0.503500
     49 HN62        -2.1000    -5.2100    -0.8600 hn         1 HSS       0.503500
     50 C9          -0.2790     3.1340     0.4820 c3         1 HSS       0.184600
     51 HB1          4.4400    -0.7720    -0.9330 hc         1 HSS       0.063700
     52 HN11         2.9570    -4.0810     0.3890 hn         1 HSS       0.377000
     53 H5'1        -0.1730     2.2570     1.1330 h1         1 HSS       0.051200
     54 H5'2         0.1280     4.0060     1.0120 h1         1 HSS       0.051200
@<TRIPOS>BOND
     1     1     2 ar  
     2     1     6 ar  
     3     1    29 1   
     4     2     3 ar  
     5     2    30 1   
     6     3     5 ar  
     7     3    32 1   
     8     4    29 1   
     9     4    30 2   
    10     4    33 1   
    11     5    31 ar  
    12     6    31 ar  
    13     7     8 1   
    14     7    11 1   
    15     7    52 1   
    16     8     9 2   
    17     8    34 1   
    18     9    10 1   
    19    10    11 2   
    20    10    35 1   
    21    11    12 1   
    22    12    13 1   
    23    12    36 1   
    24    12    51 1   
    25    13    14 1   
    26    13    15 1   
    27    13    37 1   
    28    14    38 1   
    29    14    39 1   
    30    15    16 2   
    31    15    17 1   
    32    17    18 1   
    33    17    40 1   
    34    18    19 2   
    35    18    20 2   
    36    18    21 1   
    37    21    50 1   
    38    22    23 1   
    39    22    24 1   
    40    22    41 1   
    41    22    50 1   
    42    23    28 1   
    43    24    25 1   
    44    24    26 1   
    45    24    42 1   
    46    25    43 1   
    47    26    27 1   
    48    26    28 1   
    49    26    44 1   
    50    27    45 1   
    51    28    29 1   
    52    28    46 1   
    53    31    47 1   
    54    32    48 1   
    55    32    49 1   
    56    50    53 1   
    57    50    54 1   
@<TRIPOS>SUBSTRUCTURE
     1 HSS         1 TEMP              0 ****  ****    0 ROOT
