@<TRIPOS>MOLECULE
HST
   44    44     1     0     0
SMALL
bcc


@<TRIPOS>ATOM
      1 N1          -0.8150     1.6880     1.0460 na         1 HST      -0.048600
      2 N2          -1.6710     2.3300     1.8400 nc         1 HST      -0.264800
      3 N3          -2.6780     1.5580     2.0200 nd         1 HST      -0.333000
      4 CB1         -1.2740     0.4740     0.7040 cc         1 HST      -0.116700
      5 CB2         -2.4970     0.3990     1.3470 cd         1 HST       0.257800
      6 CB3         -3.4570    -0.7460     1.3030 c          1 HST       0.843100
      7 O1          -3.0840    -1.6980     0.5850 o          1 HST      -0.807800
      8 O2          -4.5050    -0.6480     1.9620 o          1 HST      -0.807800
      9 S           -0.5230    -0.7100    -0.3160 ss         1 HST      -0.075000
     10 C1           4.2600    -0.6070     4.7920 c3         1 HST      -0.086600
     11 C2           3.0830    -0.1340     3.9500 c3         1 HST      -0.077400
     12 C3           3.2260    -0.5040     2.4790 c3         1 HST      -0.071400
     13 C4           2.0570    -0.0260     1.6250 c3         1 HST      -0.081400
     14 C5           2.2070    -0.4240     0.1640 c3         1 HST      -0.056900
     15 C6           1.0950     0.0370    -0.7730 c3         1 HST      -0.043600
     16 C7           1.3790    -0.3730    -2.2180 c3         1 HST      -0.056900
     17 C8           0.4900     0.2950    -3.2570 c3         1 HST      -0.081400
     18 C9           0.8410    -0.1240    -4.6790 c3         1 HST      -0.071400
     19 C10         -0.0140     0.5620    -5.7370 c3         1 HST      -0.077400
     20 C11          0.3440     0.1310    -7.1530 c3         1 HST      -0.086600
     21 HN1          0.0500     2.1390     0.7910 hn         1 HST       0.295700
     22 H11          4.1390    -0.3330     5.8410 hc         1 HST       0.026200
     23 H12          4.3660    -1.6920     4.7450 hc         1 HST       0.026200
     24 H13          5.1960    -0.1700     4.4420 hc         1 HST       0.026200
     25 H21          2.1560    -0.5610     4.3420 hc         1 HST       0.042200
     26 H22          2.9790     0.9520     4.0420 hc         1 HST       0.042200
     27 H31          4.1580    -0.0830     2.0870 hc         1 HST       0.031200
     28 H32          3.3220    -1.5910     2.3860 hc         1 HST       0.031200
     29 H41          1.1270    -0.4360     2.0310 hc         1 HST       0.051450
     30 H42          1.9810     1.0640     1.7070 hc         1 HST       0.051450
     31 H51          3.1460    -0.0100    -0.2200 hc         1 HST       0.035700
     32 H52          2.3010    -1.5130     0.0880 hc         1 HST       0.035700
     33 H6           1.0070     1.1270    -0.7460 h1         1 HST       0.047700
     34 H71          2.4230    -0.1170    -2.4250 hc         1 HST       0.035700
     35 H72          1.3160    -1.4640    -2.3100 hc         1 HST       0.035700
     36 H81         -0.5600     0.0600    -3.0580 hc         1 HST       0.051450
     37 H82          0.5840     1.3830    -3.1610 hc         1 HST       0.051450
     38 H91          1.8970     0.0910    -4.8720 hc         1 HST       0.031200
     39 H92          0.7310    -1.2100    -4.7730 hc         1 HST       0.031200
     40 H101        -1.0700     0.3490    -5.5460 hc         1 HST       0.042200
     41 H102         0.0980     1.6470    -5.6430 hc         1 HST       0.042200
     42 H111        -0.2740     0.6370    -7.8960 hc         1 HST       0.026200
     43 H112         1.3870     0.3550    -7.3810 hc         1 HST       0.026200
     44 H113         0.2020    -0.9440    -7.2840 hc         1 HST       0.026200
@<TRIPOS>BOND
     1     1     2 1   
     2     1     4 1   
     3     1    21 1   
     4     2     3 2   
     5     3     5 1   
     6     4     5 2   
     7     4     9 1   
     8     5     6 1   
     9     6     7 1   
    10     6     8 1   
    11     9    15 1   
    12    10    11 1   
    13    10    22 1   
    14    10    23 1   
    15    10    24 1   
    16    11    12 1   
    17    11    25 1   
    18    11    26 1   
    19    12    13 1   
    20    12    27 1   
    21    12    28 1   
    22    13    14 1   
    23    13    29 1   
    24    13    30 1   
    25    14    15 1   
    26    14    31 1   
    27    14    32 1   
    28    15    16 1   
    29    15    33 1   
    30    16    17 1   
    31    16    34 1   
    32    16    35 1   
    33    17    18 1   
    34    17    36 1   
    35    17    37 1   
    36    18    19 1   
    37    18    38 1   
    38    18    39 1   
    39    19    20 1   
    40    19    40 1   
    41    19    41 1   
    42    20    42 1   
    43    20    43 1   
    44    20    44 1   
@<TRIPOS>SUBSTRUCTURE
     1 HST         1 TEMP              0 ****  ****    0 ROOT
