@<TRIPOS>MOLECULE
HST
   44    44     1     0     0
SMALL
No Charge or Current Charge


@<TRIPOS>ATOM
      1 N1          -1.0410     1.9970     0.5990 na         1 HST      -0.048200
      2 N2          -1.4940     2.5970     1.7350 nc         1 HST      -0.264800
      3 N3          -1.9930     1.6470     2.4930 nd         1 HST      -0.333000
      4 CB1         -1.2960     0.6560     0.6530 cc         1 HST      -0.229000
      5 CB2         -1.8790     0.3990     1.8740 cd         1 HST       0.192500
      6 CB3         -2.3080    -0.9530     2.4330 c          1 HST       0.632500
      7 O1          -2.1690    -1.9780     1.7760 o          1 HST      -0.702500
      8 O2          -2.8070    -0.9840     3.5540 o          1 HST      -0.702500
      9 S           -0.7530    -0.5290    -0.5380 ss         1 HST       0.004000
     10 C1           3.8170    -0.6390     4.9260 c3         1 HST      -0.086600
     11 C2           2.7020    -0.1560     3.9790 c3         1 HST      -0.077400
     12 C3           2.9110    -0.6090     2.5180 c3         1 HST      -0.071400
     13 C4           1.7910    -0.1240     1.5720 c3         1 HST      -0.081400
     14 C5           1.9900    -0.5880     0.1100 c3         1 HST      -0.056900
     15 C6           0.9860     0.0070    -0.9150 c3         1 HST       0.004300
     16 C7           1.3510    -0.4030    -2.3650 c3         1 HST      -0.056900
     17 C8           0.5110     0.3060    -3.4550 c3         1 HST      -0.081400
     18 C9           0.9440    -0.0720    -4.8880 c3         1 HST      -0.071400
     19 C10          0.1080     0.6330    -5.9780 c3         1 HST      -0.077400
     20 C11          0.5390     0.2560    -7.4080 c3         1 HST      -0.086600
     21 HN1         -0.5990     2.5260    -0.1480 hn         1 HST       0.346000
     22 H11          3.6260    -0.2940     5.9490 hc         1 HST       0.026200
     23 H12          3.8700    -1.7340     4.9370 hc         1 HST       0.026200
     24 H13          4.7920    -0.2480     4.6090 hc         1 HST       0.026200
     25 H21          1.7380    -0.5330     4.3430 hc         1 HST       0.042200
     26 H22          2.6520     0.9390     4.0170 hc         1 HST       0.042200
     27 H31          3.8760    -0.2310     2.1580 hc         1 HST       0.031200
     28 H32          2.9620    -1.7050     2.4830 hc         1 HST       0.031200
     29 H41          0.8350    -0.5020     1.9480 hc         1 HST       0.051450
     30 H42          1.7430     0.9720     1.6010 hc         1 HST       0.051450
     31 H51          3.0050    -0.3120    -0.2010 hc         1 HST       0.035700
     32 H52          1.9380    -1.6830     0.0710 hc         1 HST       0.035700
     33 H6           1.0370     1.1010    -0.8580 h1         1 HST       0.047700
     34 H71          2.4090    -0.1710    -2.5410 hc         1 HST       0.035700
     35 H72          1.2440    -1.4900    -2.4720 hc         1 HST       0.035700
     36 H81         -0.5490     0.0550    -3.3290 hc         1 HST       0.051450
     37 H82          0.6000     1.3930    -3.3270 hc         1 HST       0.051450
     38 H91          2.0020     0.1840    -5.0250 hc         1 HST       0.031200
     39 H92          0.8580    -1.1590    -5.0150 hc         1 HST       0.031200
     40 H101        -0.9510     0.3780    -5.8470 hc         1 HST       0.042200
     41 H102         0.1920     1.7200    -5.8550 hc         1 HST       0.042200
     42 H111        -0.0810     0.7800    -8.1450 hc         1 HST       0.026200
     43 H112         1.5860     0.5320    -7.5830 hc         1 HST       0.026200
     44 H113         0.4320    -0.8230    -7.5740 hc         1 HST       0.026200
@<TRIPOS>BOND
     1     1     2 1   
     2     1     4 1   
     3     1    21 1   
     4     2     3 2   
     5     3     5 1   
     6     4     5 2   
     7     4     9 1   
     8     5     6 1   
     9     6     7 1   
    10     6     8 1   
    11     9    15 1   
    12    10    11 1   
    13    10    22 1   
    14    10    23 1   
    15    10    24 1   
    16    11    12 1   
    17    11    25 1   
    18    11    26 1   
    19    12    13 1   
    20    12    27 1   
    21    12    28 1   
    22    13    14 1   
    23    13    29 1   
    24    13    30 1   
    25    14    15 1   
    26    14    31 1   
    27    14    32 1   
    28    15    16 1   
    29    15    33 1   
    30    16    17 1   
    31    16    34 1   
    32    16    35 1   
    33    17    18 1   
    34    17    36 1   
    35    17    37 1   
    36    18    19 1   
    37    18    38 1   
    38    18    39 1   
    39    19    20 1   
    40    19    40 1   
    41    19    41 1   
    42    20    42 1   
    43    20    43 1   
    44    20    44 1   
@<TRIPOS>SUBSTRUCTURE
     1 HST         1 TEMP              0 ****  ****    0 ROOT
