@<TRIPOS>MOLECULE
HSV
   20    20     1     0     0
SMALL
No Charge or Current Charge


@<TRIPOS>ATOM
      1 N          -21.4470   -41.9290     2.5370 n8         1 HSV      -0.887800
      2 CA         -21.1090   -42.5390     1.2080 c3         1 HSV       0.039500
      3 CB         -19.7780   -41.9610     0.6610 c3         1 HSV      -0.023100
      4 CG         -19.7980   -40.4630     0.4790 cc         1 HSV      -0.054600
      5 ND1        -19.3150   -39.5520     1.4250 na         1 HSV      -0.118100
      6 CD2        -20.2540   -39.7370    -0.6050 cd         1 HSV      -0.128300
      7 CE1        -19.4770   -38.2660     0.9370 cc         1 HSV      -0.018600
      8 NE2        -20.0500   -38.4080    -0.2990 na         1 HSV      -0.112100
      9 C          -21.0810   -44.1010     1.1950 c          1 HSV       0.568900
     10 O          -22.0140   -44.7910     0.7930 o          1 HSV      -0.467100
     11 H1         -21.5380   -40.9130     2.4300 hn         1 HSV       0.354800
     12 H2         -22.3850   -42.2320     2.8290 hn         1 HSV       0.354800
     13 HA         -21.9050   -42.2490     0.5070 h1         1 HSV       0.054700
     14 HB2        -19.5560   -42.4310    -0.3060 hc         1 HSV       0.095700
     15 HB3        -18.9550   -42.2460     1.3290 hc         1 HSV       0.095700
     16 HD1        -18.9120   -39.7930     2.3250 hn         1 HSV       0.365700
     17 HD2        -20.6950   -40.0700    -1.5420 h4         1 HSV       0.234000
     18 HE1        -19.2030   -37.3370     1.4310 h5         1 HSV       0.257000
     19 HE2        -20.2910   -37.6350    -0.9120 hn         1 HSV       0.365700
     20 HC         -20.1490   -44.5670     1.5830 h4         1 HSV       0.025200
@<TRIPOS>BOND
     1     1     2 1   
     2     1    11 1   
     3     1    12 1   
     4     2     3 1   
     5     2     9 1   
     6     2    13 1   
     7     3     4 1   
     8     3    14 1   
     9     3    15 1   
    10     4     5 1   
    11     4     6 2   
    12     5     7 2   
    13     5    16 1   
    14     6     8 1   
    15     6    17 1   
    16     7     8 1   
    17     7    18 1   
    18     8    19 1   
    19     9    10 2   
    20     9    20 1   
@<TRIPOS>SUBSTRUCTURE
     1 HSV         1 TEMP              0 ****  ****    0 ROOT
