@<TRIPOS>MOLECULE
HSV
   20    20     1     0     0
SMALL
bcc


@<TRIPOS>ATOM
      1 N          -21.6450   -41.9420     2.3160 n8         1 HSV      -0.887800
      2 CA         -21.1840   -42.5190     1.0710 c3         1 HSV       0.039500
      3 CB         -19.7980   -41.9580     0.7090 c3         1 HSV      -0.023100
      4 CG         -19.8210   -40.4820     0.5110 cc         1 HSV      -0.054600
      5 ND1        -19.0240   -39.6140     1.2180 na         1 HSV      -0.118100
      6 CD2        -20.5570   -39.7040    -0.3260 cd         1 HSV      -0.128300
      7 CE1        -19.2500   -38.3690     0.8360 cc         1 HSV      -0.018600
      8 NE2        -20.1800   -38.4080    -0.1000 na         1 HSV      -0.112100
      9 C          -20.9980   -44.0070     1.2740 c          1 HSV       0.568900
     10 O          -21.1740   -44.8390     0.4240 o          1 HSV      -0.467100
     11 H1         -21.6770   -40.9330     2.2440 hn         1 HSV       0.354800
     12 H2         -22.5970   -42.2320     2.5000 hn         1 HSV       0.354800
     13 HA         -21.8540   -42.3690     0.2140 h1         1 HSV       0.054700
     14 HB2        -19.4390   -42.4380    -0.2030 hc         1 HSV       0.095700
     15 HB3        -19.0880   -42.2020     1.5030 hc         1 HSV       0.095700
     16 HD1        -18.3560   -39.8800     1.9300 hn         1 HSV       0.365700
     17 HD2        -21.3060   -39.9680    -1.0520 h4         1 HSV       0.234000
     18 HE1        -18.7660   -37.4870     1.2190 h5         1 HSV       0.257000
     19 HE2        -20.5500   -37.5960    -0.5750 hn         1 HSV       0.365700
     20 HC         -20.6510   -44.2720     2.2910 h4         1 HSV       0.025200
@<TRIPOS>BOND
     1     1     2 1   
     2     1    11 1   
     3     1    12 1   
     4     2     3 1   
     5     2     9 1   
     6     2    13 1   
     7     3     4 1   
     8     3    14 1   
     9     3    15 1   
    10     4     5 1   
    11     4     6 2   
    12     5     7 2   
    13     5    16 1   
    14     6     8 1   
    15     6    17 1   
    16     7     8 1   
    17     7    18 1   
    18     8    19 1   
    19     9    10 2   
    20     9    20 1   
@<TRIPOS>SUBSTRUCTURE
     1 HSV         1 TEMP              0 ****  ****    0 ROOT
