@<TRIPOS>MOLECULE
HSW
   10     9     1     0     0
SMALL
bcc


@<TRIPOS>ATOM
      1 O3           1.5090    -3.4960     1.7670 oh         1 HSW      -0.377300
      2 N2           1.2690    -2.4530     0.8760 n7         1 HSW      -0.576600
      3 S1          -0.3850    -2.0720     0.9230 s6         1 HSW       1.361800
      4 O2          -1.2100    -3.1700     0.4590 o          1 HSW      -0.597300
      5 O1          -0.6080    -1.5310     2.2470 o          1 HSW      -0.597300
      6 N1          -0.4990    -0.8730    -0.1680 n8         1 HSW      -0.922700
      7 HO3          1.9940    -3.0820     2.4900 ho         1 HSW       0.439000
      8 HN2          1.5220    -2.7850    -0.0540 hn         1 HSW       0.398800
      9 HN11        -0.4770    -1.1660    -1.1370 hn         1 HSW       0.435800
     10 HN12         0.0830    -0.0630     0.0140 hn         1 HSW       0.435800
@<TRIPOS>BOND
     1     1     2 1   
     2     1     7 1   
     3     2     3 1   
     4     2     8 1   
     5     3     4 2   
     6     3     5 2   
     7     3     6 1   
     8     6     9 1   
     9     6    10 1   
@<TRIPOS>SUBSTRUCTURE
     1 HSW         1 TEMP              0 ****  ****    0 ROOT
