@<TRIPOS>MOLECULE
HSW
   10     9     1     0     0
SMALL
No Charge or Current Charge


@<TRIPOS>ATOM
      1 O3           1.7660    -1.9700     1.7290 oh         1 HSW      -0.416300
      2 N2           0.9760    -2.9280     0.8520 n7         1 HSW      -0.631800
      3 S1          -0.5480    -2.4150     0.3770 s6         1 HSW       1.220200
      4 O2          -0.6550    -2.5820    -1.0670 o          1 HSW      -0.526500
      5 O1          -1.5330    -2.9510     1.3100 o          1 HSW      -0.526500
      6 N1          -0.4620    -0.8230     0.6440 n8         1 HSW      -1.033100
      7 HO3          2.6850    -1.9460     1.3560 ho         1 HSW       0.478000
      8 HN2          0.7740    -3.7650     1.4110 hn         1 HSW       0.454000
      9 HN11        -0.2510    -0.4990    -0.2960 hn         1 HSW       0.491000
     10 HN12         0.4470    -0.8110     1.1020 hn         1 HSW       0.491000
@<TRIPOS>BOND
     1     1     2 1   
     2     1     7 1   
     3     2     3 1   
     4     2     8 1   
     5     3     4 2   
     6     3     5 2   
     7     3     6 1   
     8     6     9 1   
     9     6    10 1   
@<TRIPOS>SUBSTRUCTURE
     1 HSW         1 TEMP              0 ****  ****    0 ROOT
