@<TRIPOS>MOLECULE
HSY
   20    20     1     0     0
SMALL
No Charge or Current Charge


@<TRIPOS>ATOM
      1 C1          25.3460    15.1060    -2.1760 c6         1 HSY       0.384300
      2 C2          24.1080    15.3960    -3.1070 c6         1 HSY       0.163300
      3 C3          23.7010    16.8930    -2.9930 c6         1 HSY       0.137300
      4 C4          24.9200    17.7980    -3.3300 c6         1 HSY       0.103300
      5 C5          26.1010    17.4300    -2.3830 c6         1 HSY       0.126600
      6 O2          22.9640    14.5530    -2.8390 oh         1 HSY      -0.701000
      7 O3          22.5990    17.1990    -3.8710 oh         1 HSY      -0.731000
      8 O4          24.5500    19.1880    -3.2150 oh         1 HSY      -0.720000
      9 O5          26.4220    16.0160    -2.4920 os         1 HSY      -0.478000
     10 O1          25.0610    15.2770    -0.7850 oh         1 HSY      -0.719000
     11 H1          25.6840    14.0730    -2.3590 h2         1 HSY       0.075700
     12 H2          24.4410    15.2220    -4.1410 h1         1 HSY       0.048700
     13 H3          23.4120    17.0930    -1.9490 h1         1 HSY       0.072700
     14 H4          25.2370    17.5830    -4.3620 h1         1 HSY       0.049700
     15 H51         26.9930    18.0110    -2.6570 h1         1 HSY       0.058700
     16 H52         25.8480    17.6770    -1.3410 h1         1 HSY       0.058700
     17 HO2         22.2010    15.0690    -3.1970 ho         1 HSY       0.522000
     18 HO3         22.6440    18.1810    -3.9810 ho         1 HSY       0.524000
     19 HO4         25.3160    19.7260    -3.5310 ho         1 HSY       0.510000
     20 HO1         25.9270    15.1510    -0.3380 ho         1 HSY       0.514000
@<TRIPOS>BOND
     1     1     2 1   
     2     1     9 1   
     3     1    10 1   
     4     1    11 1   
     5     2     3 1   
     6     2     6 1   
     7     2    12 1   
     8     3     4 1   
     9     3     7 1   
    10     3    13 1   
    11     4     5 1   
    12     4     8 1   
    13     4    14 1   
    14     5     9 1   
    15     5    15 1   
    16     5    16 1   
    17     6    17 1   
    18     7    18 1   
    19     8    19 1   
    20    10    20 1   
@<TRIPOS>SUBSTRUCTURE
     1 HSY         1 TEMP              0 ****  ****    0 ROOT
