@<TRIPOS>MOLECULE
HSY
   20    20     1     0     0
SMALL
abcg2


@<TRIPOS>ATOM
      1 C1          25.3320    15.1900    -2.1830 c6         1 HSY       0.384300
      2 C2          24.1260    15.4900    -3.0730 c6         1 HSY       0.163300
      3 C3          23.7490    16.9660    -2.9940 c6         1 HSY       0.137300
      4 C4          24.9700    17.8100    -3.3300 c6         1 HSY       0.103300
      5 C5          26.1360    17.4060    -2.4320 c6         1 HSY       0.126600
      6 O2          23.0760    14.6390    -2.6950 oh         1 HSY      -0.701000
      7 O3          22.6880    17.1720    -3.8980 oh         1 HSY      -0.731000
      8 O4          24.6290    19.1640    -3.1430 oh         1 HSY      -0.720000
      9 O5          26.4070    16.0210    -2.5340 os         1 HSY      -0.478000
     10 O1          24.9510    15.3370    -0.8550 oh         1 HSY      -0.719000
     11 H1          25.6890    14.1730    -2.3830 h2         1 HSY       0.075700
     12 H2          24.4460    15.2830    -4.1060 h1         1 HSY       0.048700
     13 H3          23.4340    17.2020    -1.9660 h1         1 HSY       0.072700
     14 H4          25.2460    17.6130    -4.3770 h1         1 HSY       0.049700
     15 H51         27.0470    17.9220    -2.7400 h1         1 HSY       0.058700
     16 H52         25.9240    17.7030    -1.3980 h1         1 HSY       0.058700
     17 HO2         22.3320    14.8090    -3.2810 ho         1 HSY       0.522000
     18 HO3         22.3710    18.0740    -3.7940 ho         1 HSY       0.524000
     19 HO4         25.2910    19.7120    -3.5760 ho         1 HSY       0.510000
     20 HO1         25.6310    14.9560    -0.2890 ho         1 HSY       0.514000
@<TRIPOS>BOND
     1     1     2 1   
     2     1     9 1   
     3     1    10 1   
     4     1    11 1   
     5     2     3 1   
     6     2     6 1   
     7     2    12 1   
     8     3     4 1   
     9     3     7 1   
    10     3    13 1   
    11     4     5 1   
    12     4     8 1   
    13     4    14 1   
    14     5     9 1   
    15     5    15 1   
    16     5    16 1   
    17     6    17 1   
    18     7    18 1   
    19     8    19 1   
    20    10    20 1   
@<TRIPOS>SUBSTRUCTURE
     1 HSY         1 TEMP              0 ****  ****    0 ROOT
