@<TRIPOS>MOLECULE
HT0
   24    25     1     0     0
SMALL
No Charge or Current Charge


@<TRIPOS>ATOM
      1 N            4.7270     1.7750    -0.1440 ns         1 HT0      -0.493900
      2 CA           4.8780     0.7140     0.8630 c5         1 HT0      -0.065300
      3 C            3.9190    -0.4980     0.5870 c          1 HT0       0.729000
      4 O            3.8150    -1.3550     1.4530 o          1 HT0      -0.707500
      5 CB           6.3910     0.3800     0.6560 c5         1 HT0       0.227600
      6 OB           6.9310     1.5410    -0.0200 os         1 HT0      -0.451100
      7 CG           6.5720    -0.8700    -0.2240 ca         1 HT0      -0.096300
      8 CD1          6.3030    -0.8640    -1.6120 ca         1 HT0      -0.030500
      9 CD2          7.0390    -2.0630     0.3670 ca         1 HT0      -0.030500
     10 CE1          6.4930    -2.0250    -2.3820 ca         1 HT0      -0.185500
     11 CE2          7.2290    -3.2230    -0.4060 ca         1 HT0      -0.185500
     12 CZ           6.9540    -3.2020    -1.7800 ca         1 HT0       0.126100
     13 OH           7.1360    -4.3210    -2.5340 oh         1 HT0      -0.547100
     14 C1           5.9200     2.2680    -0.5710 c          1 HT0       0.677100
     15 O2           6.0600     3.2130    -1.3270 o          1 HT0      -0.602000
     16 H            3.8640     2.1790    -0.4880 hn         1 HT0       0.338500
     17 HA           4.6890     1.0930     1.8760 h1         1 HT0       0.036700
     18 HB           6.9080     0.2530     1.6170 h1         1 HT0       0.064700
     19 HD1          5.9420     0.0370    -2.1010 ha         1 HT0       0.120000
     20 HD2          7.2560    -2.0930     1.4330 ha         1 HT0       0.120000
     21 HE1          6.2800    -2.0070    -3.4480 ha         1 HT0       0.106000
     22 HE2          7.5880    -4.1310     0.0720 ha         1 HT0       0.106000
     23 H2           7.4590    -5.0380    -1.9470 ho         1 HT0       0.451000
     24 O1           3.1970    -0.4960    -0.4030 o          1 HT0      -0.707500
@<TRIPOS>BOND
     1     1     2 1   
     2     1    14 1   
     3     1    16 1   
     4     2     3 1   
     5     2     5 1   
     6     2    17 1   
     7     3     4 1   
     8     3    24 1   
     9     5     6 1   
    10     5     7 1   
    11     5    18 1   
    12     6    14 1   
    13     7     8 ar  
    14     7     9 ar  
    15     8    10 ar  
    16     8    19 1   
    17     9    11 ar  
    18     9    20 1   
    19    10    12 ar  
    20    10    21 1   
    21    11    12 ar  
    22    11    22 1   
    23    12    13 1   
    24    13    23 1   
    25    14    15 2   
@<TRIPOS>SUBSTRUCTURE
     1 HT0         1 TEMP              0 ****  ****    0 ROOT
