@<TRIPOS>MOLECULE
HT0
   24    25     1     0     0
SMALL
abcg2


@<TRIPOS>ATOM
      1 N            4.7840     1.8030    -0.2250 ns         1 HT0      -0.493900
      2 CA           4.8020     0.7450     0.7520 c5         1 HT0      -0.065300
      3 C            3.7650    -0.3760     0.5470 c          1 HT0       0.729000
      4 O            3.8060    -1.2610     1.4210 o          1 HT0      -0.707500
      5 CB           6.2720     0.2840     0.6200 c5         1 HT0       0.227600
      6 OB           6.9270     1.4210     0.0230 os         1 HT0      -0.451100
      7 CG           6.5110    -0.9380    -0.2210 ca         1 HT0      -0.096300
      8 CD1          6.1450    -0.9950    -1.5660 ca         1 HT0      -0.030500
      9 CD2          7.1310    -2.0480     0.3340 ca         1 HT0      -0.030500
     10 CE1          6.3900    -2.1240    -2.3260 ca         1 HT0      -0.185500
     11 CE2          7.3800    -3.1910    -0.4130 ca         1 HT0      -0.185500
     12 CZ           7.0100    -3.2350    -1.7530 ca         1 HT0       0.126100
     13 OH           7.2230    -4.3090    -2.5370 oh         1 HT0      -0.547100
     14 C1           6.0160     2.2640    -0.5010 c          1 HT0       0.677100
     15 O2           6.3400     3.2500    -1.1220 o          1 HT0      -0.602000
     16 H            3.9670     2.3610    -0.4090 hn         1 HT0       0.338500
     17 HA           4.6500     1.1540     1.7590 h1         1 HT0       0.036700
     18 HB           6.7130     0.1310     1.6050 h1         1 HT0       0.064700
     19 HD1          5.6560    -0.1530    -2.0390 ha         1 HT0       0.120000
     20 HD2          7.4300    -2.0310     1.3760 ha         1 HT0       0.120000
     21 HE1          6.1010    -2.1520    -3.3700 ha         1 HT0       0.106000
     22 HE2          7.8650    -4.0430     0.0500 ha         1 HT0       0.106000
     23 H2           7.6680    -5.0070    -2.0420 ho         1 HT0       0.451000
     24 O1           3.0000    -0.2820    -0.4260 o          1 HT0      -0.707500
@<TRIPOS>BOND
     1     1     2 1   
     2     1    14 1   
     3     1    16 1   
     4     2     3 1   
     5     2     5 1   
     6     2    17 1   
     7     3     4 1   
     8     3    24 1   
     9     5     6 1   
    10     5     7 1   
    11     5    18 1   
    12     6    14 1   
    13     7     8 ar  
    14     7     9 ar  
    15     8    10 ar  
    16     8    19 1   
    17     9    11 ar  
    18     9    20 1   
    19    10    12 ar  
    20    10    21 1   
    21    11    12 ar  
    22    11    22 1   
    23    12    13 1   
    24    13    23 1   
    25    14    15 2   
@<TRIPOS>SUBSTRUCTURE
     1 HT0         1 TEMP              0 ****  ****    0 ROOT
