@<TRIPOS>MOLECULE
HT1
   62    67     1     0     0
SMALL
No Charge or Current Charge


@<TRIPOS>ATOM
      1 C1           0.1960    -0.1950     8.8040 ca         1 HT1       0.167100
      2 O1           0.3710    -0.1800    10.1720 os         1 HT1      -0.344100
      3 C2          -1.0890    -0.4530     8.3100 ca         1 HT1      -0.182500
      4 C3          -1.3310    -0.4820     6.9260 ca         1 HT1      -0.040500
      5 C4          -0.2820    -0.2520     6.0070 ca         1 HT1      -0.162900
      6 C5           1.0130     0.0080     6.5120 ca         1 HT1      -0.040500
      7 C6           1.2510     0.0360     7.8980 ca         1 HT1      -0.182500
      8 C7          -0.5440    -0.2840     4.5600 cc         1 HT1       0.492400
      9 N1           0.4260    -0.0690     3.5810 na         1 HT1      -0.307600
     10 C8          -0.1920    -0.1780     2.3730 ca         1 HT1      -0.090200
     11 C9          -1.5010    -0.4510     2.6280 ca         1 HT1       0.087400
     12 N2          -1.7470    -0.5230     3.9950 nd         1 HT1      -0.584100
     13 C10         -2.4080    -0.6220     1.5750 ca         1 HT1      -0.055000
     14 C11         -1.9330    -0.5040     0.2500 ca         1 HT1      -0.126000
     15 C12         -0.5620    -0.2180    -0.0160 ca         1 HT1      -0.102900
     16 C13          0.3260    -0.0520     1.0780 ca         1 HT1      -0.063000
     17 C14         -0.0630    -0.0940    -1.3950 cc         1 HT1       0.468400
     18 N3          -0.8580    -0.2400    -2.5310 na         1 HT1      -0.314600
     19 C15         -0.0530    -0.0570    -3.6100 ca         1 HT1      -0.046200
     20 C16          1.1970     0.1910    -3.1300 ca         1 HT1       0.043400
     21 N4           1.2170     0.1740    -1.7380 nd         1 HT1      -0.573100
     22 C17          2.2630     0.4210    -4.0100 ca         1 HT1      -0.023000
     23 C18          2.0050     0.3870    -5.3990 ca         1 HT1      -0.185000
     24 C19          0.6990     0.1300    -5.8940 ca         1 HT1       0.315000
     25 C20         -0.3510    -0.0980    -4.9760 ca         1 HT1      -0.171000
     26 N5           0.4330     0.0940    -7.2830 nh         1 HT1      -0.793400
     27 C21          1.5110    -0.2270    -8.2750 c6         1 HT1       0.199300
     28 C22          0.9420    -0.7300    -9.6430 c6         1 HT1       0.157300
     29 N6          -0.0740     0.1970   -10.2270 n3         1 HT1      -0.715600
     30 C23         -1.1710     0.4310    -9.2370 c6         1 HT1       0.157300
     31 C24         -0.6460     0.9590    -7.8610 c6         1 HT1       0.199300
     32 C25         -0.5780    -0.2610   -11.5390 c3         1 HT1       0.153100
     33 C26          1.6490     0.0750    10.7780 c3         1 HT1       0.164600
     34 C27          1.4610     0.0130    12.3020 c3         1 HT1      -0.095100
     35 H2          -1.9060    -0.6320     9.0040 ha         1 HT1       0.126000
     36 H3          -2.3400    -0.6850     6.5720 ha         1 HT1       0.122500
     37 H5           1.8480     0.1900     5.8390 ha         1 HT1       0.122500
     38 H6           2.2600     0.2390     8.2470 ha         1 HT1       0.126000
     39 HN1          1.4020     0.1290     3.7500 hn         1 HT1       0.359000
     40 H10         -3.4540    -0.8400     1.7770 ha         1 HT1       0.130000
     41 H11         -2.6390    -0.6370    -0.5650 ha         1 HT1       0.103000
     42 H13          1.3800     0.1680     0.9250 ha         1 HT1       0.144000
     43 HN3         -1.8470    -0.4440    -2.5370 hn         1 HT1       0.356000
     44 H17          3.2620     0.6210    -3.6310 ha         1 HT1       0.125000
     45 H18          2.8240     0.5750    -6.0850 ha         1 HT1       0.114000
     46 H20         -1.3580    -0.3130    -5.3190 ha         1 HT1       0.119000
     47 H211         2.1240     0.6680    -8.4580 h1         1 HT1       0.044200
     48 H212         2.1770    -1.0050    -7.8740 h1         1 HT1       0.044200
     49 H221         1.7820    -0.8630   -10.3410 h1         1 HT1       0.038950
     50 H222         0.4970    -1.7240    -9.4870 h1         1 HT1       0.038950
     51 H231        -1.8940     1.1580    -9.6360 h1         1 HT1       0.038950
     52 H232        -1.7230    -0.5040    -9.0610 h1         1 HT1       0.038950
     53 H241        -1.5010     1.0310    -7.1740 h1         1 HT1       0.044200
     54 H242        -0.2610     1.9800    -8.0020 h1         1 HT1       0.044200
     55 H251        -1.2860     0.4670   -11.9580 h1         1 HT1       0.031367
     56 H252         0.2490    -0.3770   -12.2520 h1         1 HT1       0.031367
     57 H253        -1.0910    -1.2280   -11.4470 h1         1 HT1       0.031367
     58 H261         2.0230     1.0680    10.4970 h1         1 HT1       0.035200
     59 H262         2.3840    -0.6810    10.4700 h1         1 HT1       0.035200
     60 H271         2.4140     0.2020    12.8100 hc         1 HT1       0.048700
     61 H272         0.7390     0.7690    12.6330 hc         1 HT1       0.048700
     62 H273         1.0990    -0.9760    12.6070 hc         1 HT1       0.048700
@<TRIPOS>BOND
     1     1     2 1   
     2     1     3 ar  
     3     1     7 ar  
     4     2    33 1   
     5     3     4 ar  
     6     3    35 1   
     7     4     5 ar  
     8     4    36 1   
     9     5     6 ar  
    10     5     8 1   
    11     6     7 ar  
    12     6    37 1   
    13     7    38 1   
    14     8     9 1   
    15     8    12 2   
    16     9    10 1   
    17     9    39 1   
    18    10    11 ar  
    19    10    16 ar  
    20    11    12 1   
    21    11    13 ar  
    22    13    14 ar  
    23    13    40 1   
    24    14    15 ar  
    25    14    41 1   
    26    15    16 ar  
    27    15    17 1   
    28    16    42 1   
    29    17    18 1   
    30    17    21 2   
    31    18    19 1   
    32    18    43 1   
    33    19    20 ar  
    34    19    25 ar  
    35    20    21 1   
    36    20    22 ar  
    37    22    23 ar  
    38    22    44 1   
    39    23    24 ar  
    40    23    45 1   
    41    24    25 ar  
    42    24    26 1   
    43    25    46 1   
    44    26    27 1   
    45    26    31 1   
    46    27    28 1   
    47    27    47 1   
    48    27    48 1   
    49    28    29 1   
    50    28    49 1   
    51    28    50 1   
    52    29    30 1   
    53    29    32 1   
    54    30    31 1   
    55    30    51 1   
    56    30    52 1   
    57    31    53 1   
    58    31    54 1   
    59    32    55 1   
    60    32    56 1   
    61    32    57 1   
    62    33    34 1   
    63    33    58 1   
    64    33    59 1   
    65    34    60 1   
    66    34    61 1   
    67    34    62 1   
@<TRIPOS>SUBSTRUCTURE
     1 HT1         1 TEMP              0 ****  ****    0 ROOT
