@<TRIPOS>MOLECULE
HT1
   62    67     1     0     0
SMALL
bcc


@<TRIPOS>ATOM
      1 C1           0.2230    -0.2400     8.6890 ca         1 HT1       0.167100
      2 O1           0.3410    -0.2620    10.0230 os         1 HT1      -0.320900
      3 C2          -1.0670    -0.4250     8.1770 ca         1 HT1      -0.200500
      4 C3          -1.2870    -0.4120     6.8180 ca         1 HT1      -0.058500
      5 C4          -0.2320    -0.2170     5.9200 ca         1 HT1      -0.162900
      6 C5           1.0470    -0.0380     6.4380 ca         1 HT1      -0.058500
      7 C6           1.2830    -0.0480     7.8040 ca         1 HT1      -0.200500
      8 C7          -0.5060    -0.2010     4.4890 cc         1 HT1       0.492400
      9 N1           0.4660    -0.0970     3.5410 na         1 HT1      -0.257300
     10 C8          -0.1460    -0.1080     2.3170 ca         1 HT1      -0.090200
     11 C9          -1.5170    -0.2230     2.6110 ca         1 HT1       0.087400
     12 N2          -1.7050    -0.2770     3.9630 nd         1 HT1      -0.584100
     13 C10         -2.4390    -0.2590     1.5670 ca         1 HT1      -0.073000
     14 C11         -1.9630    -0.1840     0.2730 ca         1 HT1      -0.144000
     15 C12         -0.5860    -0.0760    -0.0100 ca         1 HT1      -0.102900
     16 C13          0.3440    -0.0340     1.0260 ca         1 HT1      -0.081000
     17 C14         -0.1010     0.0010    -1.3850 cc         1 HT1       0.468400
     18 N3          -0.9070    -0.1840    -2.4730 na         1 HT1      -0.264300
     19 C15         -0.1330    -0.0460    -3.5910 ca         1 HT1      -0.046200
     20 C16          1.1530     0.2270    -3.0970 ca         1 HT1       0.043400
     21 N4           1.1360     0.2500    -1.7250 nd         1 HT1      -0.573100
     22 C17          2.1890     0.4210    -4.0050 ca         1 HT1      -0.041000
     23 C18          1.9110     0.3430    -5.3580 ca         1 HT1      -0.203000
     24 C19          0.6170     0.0520    -5.8500 ca         1 HT1       0.176600
     25 C20         -0.4250    -0.1520    -4.9410 ca         1 HT1      -0.189000
     26 N5           0.3630    -0.0680    -7.2190 nh         1 HT1      -0.655000
     27 C21          1.4810    -0.0440    -8.1390 c6         1 HT1       0.199300
     28 C22          1.0570    -0.5830    -9.4930 c6         1 HT1       0.157300
     29 N6          -0.0580     0.1680   -10.0290 n3         1 HT1      -0.715600
     30 C23         -1.1750     0.1110    -9.1100 c6         1 HT1       0.157300
     31 C24         -0.7810     0.6570    -7.7530 c6         1 HT1       0.199300
     32 C25         -0.4250    -0.2830   -11.3510 c3         1 HT1       0.153100
     33 C26          1.6200    -0.0530    10.6110 c3         1 HT1       0.141400
     34 C27          1.4580    -0.1040    12.1110 c3         1 HT1      -0.095100
     35 H2          -1.8920    -0.5770     8.8610 ha         1 HT1       0.144000
     36 H3          -2.2900    -0.5560     6.4410 ha         1 HT1       0.140500
     37 H5           1.8980     0.1200     5.7860 ha         1 HT1       0.140500
     38 H6           2.2940     0.1000     8.1560 ha         1 HT1       0.144000
     39 HN1          1.4600    -0.0420     3.6980 hn         1 HT1       0.308700
     40 H10         -3.5010    -0.3380     1.7620 ha         1 HT1       0.148000
     41 H11         -2.6860    -0.1990    -0.5310 ha         1 HT1       0.121000
     42 H13          1.4030     0.0500     0.8190 ha         1 HT1       0.162000
     43 HN3         -1.8890    -0.4070    -2.4650 hn         1 HT1       0.305700
     44 H17          3.1930     0.6430    -3.6660 ha         1 HT1       0.143000
     45 H18          2.7210     0.5230    -6.0500 ha         1 HT1       0.132000
     46 H20         -1.4230    -0.4060    -5.2710 ha         1 HT1       0.137000
     47 H211         1.8920     0.9700    -8.2620 h1         1 HT1       0.044200
     48 H212         2.2830    -0.6790    -7.7600 h1         1 HT1       0.044200
     49 H221         1.9040    -0.5080   -10.1800 h1         1 HT1       0.038950
     50 H222         0.8160    -1.6550    -9.3910 h1         1 HT1       0.038950
     51 H231        -1.9980     0.7120    -9.5050 h1         1 HT1       0.038950
     52 H232        -1.5540    -0.9190    -8.9900 h1         1 HT1       0.038950
     53 H241        -1.6330     0.5670    -7.0840 h1         1 HT1       0.044200
     54 H242        -0.5500     1.7290    -7.8460 h1         1 HT1       0.044200
     55 H251        -1.2430     0.3260   -11.7380 h1         1 HT1       0.031367
     56 H252         0.4220    -0.1790   -12.0300 h1         1 HT1       0.031367
     57 H253        -0.7500    -1.3360   -11.3780 h1         1 HT1       0.031367
     58 H261         2.0230     0.9160    10.3000 h1         1 HT1       0.035200
     59 H262         2.3200    -0.8260    10.2750 h1         1 HT1       0.035200
     60 H271         2.4250     0.0680    12.5830 hc         1 HT1       0.048700
     61 H272         0.7720     0.6660    12.4640 hc         1 HT1       0.048700
     62 H273         1.0920    -1.0760    12.4410 hc         1 HT1       0.048700
@<TRIPOS>BOND
     1     1     2 1   
     2     1     3 ar  
     3     1     7 ar  
     4     2    33 1   
     5     3     4 ar  
     6     3    35 1   
     7     4     5 ar  
     8     4    36 1   
     9     5     6 ar  
    10     5     8 1   
    11     6     7 ar  
    12     6    37 1   
    13     7    38 1   
    14     8     9 1   
    15     8    12 2   
    16     9    10 1   
    17     9    39 1   
    18    10    11 ar  
    19    10    16 ar  
    20    11    12 1   
    21    11    13 ar  
    22    13    14 ar  
    23    13    40 1   
    24    14    15 ar  
    25    14    41 1   
    26    15    16 ar  
    27    15    17 1   
    28    16    42 1   
    29    17    18 1   
    30    17    21 2   
    31    18    19 1   
    32    18    43 1   
    33    19    20 ar  
    34    19    25 ar  
    35    20    21 1   
    36    20    22 ar  
    37    22    23 ar  
    38    22    44 1   
    39    23    24 ar  
    40    23    45 1   
    41    24    25 ar  
    42    24    26 1   
    43    25    46 1   
    44    26    27 1   
    45    26    31 1   
    46    27    28 1   
    47    27    47 1   
    48    27    48 1   
    49    28    29 1   
    50    28    49 1   
    51    28    50 1   
    52    29    30 1   
    53    29    32 1   
    54    30    31 1   
    55    30    51 1   
    56    30    52 1   
    57    31    53 1   
    58    31    54 1   
    59    32    55 1   
    60    32    56 1   
    61    32    57 1   
    62    33    34 1   
    63    33    58 1   
    64    33    59 1   
    65    34    60 1   
    66    34    61 1   
    67    34    62 1   
@<TRIPOS>SUBSTRUCTURE
     1 HT1         1 TEMP              0 ****  ****    0 ROOT
