@<TRIPOS>MOLECULE
HT2
   48    52     1     0     0
SMALL
abcg2


@<TRIPOS>ATOM
      1 N1           1.1460    -0.3560    -9.4220 nv         1 HT2      -1.074200
      2 N2          -1.0810     0.2920    -9.0120 n2         1 HT2      -0.832100
      3 C1           0.0970    -0.0070    -8.6170 ce         1 HT2       0.661800
      4 C2           0.4080     0.0690    -7.1630 ca         1 HT2      -0.134900
      5 C3          -0.6320    -0.0790    -6.2530 ca         1 HT2      -0.060000
      6 C4          -0.3110    -0.0050    -4.9080 ca         1 HT2      -0.092200
      7 C5           0.9970     0.2190    -4.4460 ca         1 HT2       0.086400
      8 C6           2.0310     0.3790    -5.3670 ca         1 HT2      -0.061000
      9 C7           1.7230     0.3000    -6.7110 ca         1 HT2      -0.117000
     10 N3          -1.0630    -0.1150    -3.7710 na         1 HT2      -0.303600
     11 C8          -0.2270     0.0400    -2.7080 cc         1 HT2       0.479400
     12 N4           1.0140     0.2420    -3.0790 nd         1 HT2      -0.585100
     13 C9          -0.6700    -0.0130    -1.3180 ca         1 HT2      -0.103900
     14 C10          0.2950     0.0700    -0.3180 ca         1 HT2      -0.060000
     15 C11         -0.1510     0.0190     0.9900 ca         1 HT2      -0.088200
     16 C12         -1.5090    -0.1080     1.3330 ca         1 HT2       0.085400
     17 C13         -2.4660    -0.1890     0.3220 ca         1 HT2      -0.051000
     18 C14         -2.0350    -0.1400    -0.9870 ca         1 HT2      -0.124000
     19 N5           0.5030     0.0700     2.1890 na         1 HT2      -0.301600
     20 C15         -0.4340    -0.0220     3.1700 cc         1 HT2       0.474400
     21 N6          -1.6490    -0.1300     2.6920 nd         1 HT2      -0.573100
     22 C16         -0.1070    -0.0040     4.5930 ca         1 HT2      -0.102900
     23 C17         -1.1360    -0.1060     5.5310 ca         1 HT2      -0.085500
     24 C18         -0.8550    -0.0890     6.8840 ca         1 HT2      -0.092000
     25 C19          0.4590     0.0190     7.3380 ca         1 HT2      -0.181900
     26 C20          1.4860     0.1150     6.4020 ca         1 HT2      -0.092000
     27 C21          1.2060     0.1100     5.0460 ca         1 HT2      -0.085500
     28 C22          0.7420     0.0510     8.8000 ce         1 HT2       0.658800
     29 N7           1.9160    -0.5330     9.1680 nv         1 HT2      -1.033200
     30 N8          -0.0070     0.6140     9.6690 n2         1 HT2      -0.838100
     31 HN11         1.8630    -0.9500    -9.0390 hn         1 HT2       0.460000
     32 HN12         0.9360    -0.5550   -10.3870 hn         1 HT2       0.460000
     33 HN2         -1.1760     0.1610   -10.0150 hn         1 HT2       0.370400
     34 H3          -1.6430    -0.2550    -6.5940 ha         1 HT2       0.141000
     35 H6           3.0460     0.5670    -5.0400 ha         1 HT2       0.130000
     36 H7           2.5170     0.4460    -7.4310 ha         1 HT2       0.119000
     37 HN3         -2.0560    -0.2820    -3.7390 hn         1 HT2       0.361000
     38 H10          1.3430     0.1690    -0.5640 ha         1 HT2       0.147000
     39 H13         -3.5190    -0.2830     0.5550 ha         1 HT2       0.133000
     40 H14         -2.7830    -0.1940    -1.7670 ha         1 HT2       0.106000
     41 HN5          1.5000     0.1590     2.3080 hn         1 HT2       0.362000
     42 H17         -2.1590    -0.2040     5.1940 ha         1 HT2       0.126500
     43 H18         -1.6690    -0.1840     7.5910 ha         1 HT2       0.126500
     44 H20          2.5130     0.2130     6.7270 ha         1 HT2       0.126500
     45 H21          2.0350     0.1960     4.3550 ha         1 HT2       0.126500
     46 HN71         2.0750    -0.6290    10.1580 hn         1 HT2       0.470000
     47 HN72         2.2610    -1.3020     8.6170 hn         1 HT2       0.470000
     48 HN8         -0.7810     1.0910     9.2230 hn         1 HT2       0.390400
@<TRIPOS>BOND
     1     1     3 1   
     2     1    31 1   
     3     1    32 1   
     4     2     3 2   
     5     2    33 1   
     6     3     4 1   
     7     4     5 ar  
     8     4     9 ar  
     9     5     6 ar  
    10     5    34 1   
    11     6     7 ar  
    12     6    10 1   
    13     7     8 ar  
    14     7    12 1   
    15     8     9 ar  
    16     8    35 1   
    17     9    36 1   
    18    10    11 1   
    19    10    37 1   
    20    11    12 2   
    21    11    13 1   
    22    13    14 ar  
    23    13    18 ar  
    24    14    15 ar  
    25    14    38 1   
    26    15    16 ar  
    27    15    19 1   
    28    16    17 ar  
    29    16    21 1   
    30    17    18 ar  
    31    17    39 1   
    32    18    40 1   
    33    19    20 1   
    34    19    41 1   
    35    20    21 2   
    36    20    22 1   
    37    22    23 ar  
    38    22    27 ar  
    39    23    24 ar  
    40    23    42 1   
    41    24    25 ar  
    42    24    43 1   
    43    25    26 ar  
    44    25    28 1   
    45    26    27 ar  
    46    26    44 1   
    47    27    45 1   
    48    28    29 1   
    49    28    30 2   
    50    29    46 1   
    51    29    47 1   
    52    30    48 1   
@<TRIPOS>SUBSTRUCTURE
     1 HT2         1 TEMP              0 ****  ****    0 ROOT
