@<TRIPOS>MOLECULE
HT2
   48    52     1     0     0
SMALL
No Charge or Current Charge


@<TRIPOS>ATOM
      1 N1           1.0430    -0.2520    -9.6290 nv         1 HT2      -1.074200
      2 N2          -1.1030     0.2500    -9.1870 n2         1 HT2      -0.832100
      3 C1           0.0710     0.0600    -8.7440 ce         1 HT2       0.661800
      4 C2           0.4120     0.0570    -7.2810 ca         1 HT2      -0.134900
      5 C3          -0.6240    -0.0280    -6.3140 ca         1 HT2      -0.060000
      6 C4          -0.2700    -0.0010    -4.9590 ca         1 HT2      -0.092200
      7 C5           1.0160     0.1170    -4.5290 ca         1 HT2       0.086400
      8 C6           2.0650     0.2240    -5.4490 ca         1 HT2      -0.061000
      9 C7           1.7580     0.1990    -6.8280 ca         1 HT2      -0.117000
     10 N3          -1.0490    -0.0740    -3.8450 na         1 HT2      -0.303600
     11 C8          -0.1980     0.0020    -2.7430 cc         1 HT2       0.479400
     12 N4           1.0880     0.1220    -3.1390 nd         1 HT2      -0.585100
     13 C9          -0.6520    -0.0420    -1.3430 ca         1 HT2      -0.103900
     14 C10          0.2910     0.0440    -0.2880 ca         1 HT2      -0.060000
     15 C11         -0.1840    -0.0030     1.0280 ca         1 HT2      -0.088200
     16 C12         -1.5030    -0.1260     1.3390 ca         1 HT2       0.085400
     17 C13         -2.4660    -0.2130     0.3260 ca         1 HT2      -0.051000
     18 C14         -2.0340    -0.1710    -1.0190 ca         1 HT2      -0.124000
     19 N5           0.4910     0.0580     2.2090 na         1 HT2      -0.301600
     20 C15         -0.4560    -0.0320     3.2290 cc         1 HT2       0.474400
     21 N6          -1.7010    -0.1460     2.7160 nd         1 HT2      -0.573100
     22 C16         -0.1320    -0.0040     4.6660 ca         1 HT2      -0.102900
     23 C17         -1.1560    -0.1090     5.6320 ca         1 HT2      -0.085500
     24 C18         -0.8600    -0.0820     7.0060 ca         1 HT2      -0.092000
     25 C19          0.4730     0.0370     7.4580 ca         1 HT2      -0.181900
     26 C20          1.4960     0.1630     6.4900 ca         1 HT2      -0.092000
     27 C21          1.1990     0.1370     5.1170 ca         1 HT2      -0.085500
     28 C22          0.7870     0.1060     8.9200 ce         1 HT2       0.658800
     29 N7           1.9760    -0.3680     9.3340 nv         1 HT2      -1.033200
     30 N8          -0.0570     0.4510     9.8010 n2         1 HT2      -0.838100
     31 HN11         1.8670    -0.6780    -9.2210 hn         1 HT2       0.460000
     32 HN12         0.7370    -0.6610   -10.5040 hn         1 HT2       0.460000
     33 HN2         -1.0370     0.4070   -10.1990 hn         1 HT2       0.370400
     34 H3          -1.6670    -0.1210    -6.6080 ha         1 HT2       0.141000
     35 H6           3.0920     0.3300    -5.1070 ha         1 HT2       0.130000
     36 H7           2.5740     0.3050    -7.5390 ha         1 HT2       0.119000
     37 HN3         -2.0540    -0.1660    -3.8090 hn         1 HT2       0.361000
     38 H10          1.3570     0.1430    -0.4860 ha         1 HT2       0.147000
     39 H13         -3.5200    -0.3120     0.5720 ha         1 HT2       0.133000
     40 H14         -2.7840    -0.2390    -1.8030 ha         1 HT2       0.106000
     41 HN5          1.4890     0.1490     2.3360 hn         1 HT2       0.362000
     42 H17         -2.1940    -0.2130     5.3220 ha         1 HT2       0.126500
     43 H18         -1.6800    -0.1730     7.7160 ha         1 HT2       0.126500
     44 H20          2.5320     0.2940     6.7980 ha         1 HT2       0.126500
     45 H21          2.0190     0.2350     4.4090 ha         1 HT2       0.126500
     46 HN71         1.9980    -0.5990    10.3190 hn         1 HT2       0.470000
     47 HN72         2.4200    -1.0340     8.7130 hn         1 HT2       0.470000
     48 HN8         -0.8770     0.8340     9.3150 hn         1 HT2       0.390400
@<TRIPOS>BOND
     1     1     3 1   
     2     1    31 1   
     3     1    32 1   
     4     2     3 2   
     5     2    33 1   
     6     3     4 1   
     7     4     5 ar  
     8     4     9 ar  
     9     5     6 ar  
    10     5    34 1   
    11     6     7 ar  
    12     6    10 1   
    13     7     8 ar  
    14     7    12 1   
    15     8     9 ar  
    16     8    35 1   
    17     9    36 1   
    18    10    11 1   
    19    10    37 1   
    20    11    12 2   
    21    11    13 1   
    22    13    14 ar  
    23    13    18 ar  
    24    14    15 ar  
    25    14    38 1   
    26    15    16 ar  
    27    15    19 1   
    28    16    17 ar  
    29    16    21 1   
    30    17    18 ar  
    31    17    39 1   
    32    18    40 1   
    33    19    20 1   
    34    19    41 1   
    35    20    21 2   
    36    20    22 1   
    37    22    23 ar  
    38    22    27 ar  
    39    23    24 ar  
    40    23    42 1   
    41    24    25 ar  
    42    24    43 1   
    43    25    26 ar  
    44    25    28 1   
    45    26    27 ar  
    46    26    44 1   
    47    27    45 1   
    48    28    29 1   
    49    28    30 2   
    50    29    46 1   
    51    29    47 1   
    52    30    48 1   
@<TRIPOS>SUBSTRUCTURE
     1 HT2         1 TEMP              0 ****  ****    0 ROOT
