@<TRIPOS>MOLECULE
HT3
   26    25     1     0     0
SMALL
abcg2


@<TRIPOS>ATOM
      1 C1          -2.8350    -0.4500     0.3830 c3         1 HT3       0.131600
      2 O1          -4.0030     0.1170    -0.1660 oh         1 HT3      -0.709000
      3 C2          -1.6240     0.2680    -0.1920 c3         1 HT3       0.134300
      4 O2          -1.6690     1.6530     0.0760 oh         1 HT3      -0.637000
      5 C3          -0.3060    -0.3550     0.3020 c3         1 HT3       0.134300
      6 O3          -0.2770    -1.7450     0.0390 oh         1 HT3      -0.716000
      7 C4           0.9160     0.3530    -0.2730 c3         1 HT3      -0.106400
      8 C5           2.2390    -0.1840     0.2570 c3         1 HT3      -0.073400
      9 C6           3.4430     0.5450    -0.3280 c3         1 HT3      -0.076400
     10 C7           4.7690     0.0140     0.1970 c3         1 HT3      -0.088100
     11 H1          -2.8180    -0.3560     1.4810 h1         1 HT3       0.028200
     12 H1A         -2.7610    -1.5180     0.1570 h1         1 HT3       0.028200
     13 HO1         -4.7500    -0.4200     0.1110 ho         1 HT3       0.502000
     14 H2          -1.6550     0.1810    -1.2860 h1         1 HT3       0.080700
     15 HO2         -1.6650     1.7790     1.0320 ho         1 HT3       0.437000
     16 H3          -0.2780    -0.2700     1.3970 h1         1 HT3       0.067700
     17 HO3         -0.1990    -1.8690    -0.9130 ho         1 HT3       0.502000
     18 H4           0.8940     0.2710    -1.3670 hc         1 HT3       0.051700
     19 H4A          0.8460     1.4210    -0.0510 hc         1 HT3       0.051700
     20 H5           2.2570    -0.0930     1.3490 hc         1 HT3       0.043200
     21 H5A          2.3270    -1.2520     0.0380 hc         1 HT3       0.043200
     22 H6           3.4210     0.4610    -1.4190 hc         1 HT3       0.037200
     23 H6A          3.3620     1.6140    -0.1070 hc         1 HT3       0.037200
     24 H7           4.8370     0.1180     1.2810 hc         1 HT3       0.032367
     25 H7A          4.8900    -1.0460    -0.0380 hc         1 HT3       0.032367
     26 H7B          5.6150     0.5460    -0.2390 hc         1 HT3       0.032367
@<TRIPOS>BOND
     1     1     2 1   
     2     1     3 1   
     3     1    11 1   
     4     1    12 1   
     5     2    13 1   
     6     3     4 1   
     7     3     5 1   
     8     3    14 1   
     9     4    15 1   
    10     5     6 1   
    11     5     7 1   
    12     5    16 1   
    13     6    17 1   
    14     7     8 1   
    15     7    18 1   
    16     7    19 1   
    17     8     9 1   
    18     8    20 1   
    19     8    21 1   
    20     9    10 1   
    21     9    22 1   
    22     9    23 1   
    23    10    24 1   
    24    10    25 1   
    25    10    26 1   
@<TRIPOS>SUBSTRUCTURE
     1 HT3         1 TEMP              0 ****  ****    0 ROOT
