@<TRIPOS>MOLECULE
HT3
   26    25     1     0     0
SMALL
No Charge or Current Charge


@<TRIPOS>ATOM
      1 C1          -2.8810    -0.4530     0.4630 c3         1 HT3       0.131600
      2 O1          -4.0770     0.2820     0.1330 oh         1 HT3      -0.709000
      3 C2          -1.6370     0.2630    -0.1330 c3         1 HT3       0.134300
      4 O2          -1.7060     1.6440     0.2620 oh         1 HT3      -0.637000
      5 C3          -0.2840    -0.3800     0.3190 c3         1 HT3       0.134300
      6 O3          -0.2490    -1.7700    -0.0510 oh         1 HT3      -0.716000
      7 C4           0.9640     0.3300    -0.2760 c3         1 HT3      -0.106400
      8 C5           2.3180    -0.2230     0.2360 c3         1 HT3      -0.073400
      9 C6           3.5340     0.5430    -0.3290 c3         1 HT3      -0.076400
     10 C7           4.8820    -0.0040     0.1810 c3         1 HT3      -0.088100
     11 H1          -2.7690    -0.5300     1.5530 h1         1 HT3       0.028200
     12 H1A         -2.9400    -1.4730     0.0600 h1         1 HT3       0.028200
     13 HO1         -4.8420    -0.2460     0.4640 ho         1 HT3       0.502000
     14 H2          -1.7020     0.1890    -1.2280 h1         1 HT3       0.080700
     15 HO2         -2.6740     1.8260     0.3050 ho         1 HT3       0.437000
     16 H3          -0.2300    -0.2920     1.4140 h1         1 HT3       0.067700
     17 HO3          0.0320    -1.8160    -0.9940 ho         1 HT3       0.502000
     18 H4           0.9350     0.2670    -1.3710 hc         1 HT3       0.051700
     19 H4A          0.9180     1.3970    -0.0270 hc         1 HT3       0.051700
     20 H5           2.3360    -0.1680     1.3320 hc         1 HT3       0.043200
     21 H5A          2.4100    -1.2830    -0.0310 hc         1 HT3       0.043200
     22 H6           3.5200     0.4900    -1.4250 hc         1 HT3       0.037200
     23 H6A          3.4550     1.6030    -0.0580 hc         1 HT3       0.037200
     24 H7           4.9410     0.0680     1.2740 hc         1 HT3       0.032367
     25 H7A          5.0080    -1.0550    -0.1060 hc         1 HT3       0.032367
     26 H7B          5.7130     0.5700    -0.2460 hc         1 HT3       0.032367
@<TRIPOS>BOND
     1     1     2 1   
     2     1     3 1   
     3     1    11 1   
     4     1    12 1   
     5     2    13 1   
     6     3     4 1   
     7     3     5 1   
     8     3    14 1   
     9     4    15 1   
    10     5     6 1   
    11     5     7 1   
    12     5    16 1   
    13     6    17 1   
    14     7     8 1   
    15     7    18 1   
    16     7    19 1   
    17     8     9 1   
    18     8    20 1   
    19     8    21 1   
    20     9    10 1   
    21     9    22 1   
    22     9    23 1   
    23    10    24 1   
    24    10    25 1   
    25    10    26 1   
@<TRIPOS>SUBSTRUCTURE
     1 HT3         1 TEMP              0 ****  ****    0 ROOT
