@<TRIPOS>MOLECULE
HT4
   17    17     1     0     0
SMALL
bcc


@<TRIPOS>ATOM
      1 O1          -1.6610    -1.8650     0.1370 oh         1 HT4      -0.491100
      2 C1          -0.5420    -1.1260     0.1020 ca         1 HT4       0.181100
      3 C6           0.6880    -1.7830     0.1070 ca         1 HT4      -0.174000
      4 C5           1.8650    -1.0600     0.0730 ca         1 HT4      -0.068000
      5 C4           1.8700     0.3360     0.0370 ca         1 HT4      -0.126300
      6 C7           3.1590     1.1050     0.0060 c3         1 HT4      -0.039800
      7 C3           0.6420     0.9810     0.0340 ca         1 HT4      -0.044000
      8 C2          -0.5560     0.2700     0.0580 ca         1 HT4      -0.082100
      9 S1          -2.1150     1.1220     0.1150 sh         1 HT4      -0.356700
     10 H1          -2.4320    -1.2780     0.1610 ho         1 HT4       0.445000
     11 H2           0.7120    -2.8650     0.1370 ha         1 HT4       0.149000
     12 H3           2.8060    -1.5990     0.0780 ha         1 HT4       0.134000
     13 H4           3.7530     0.9280     0.9040 hc         1 HT4       0.041700
     14 H5           3.7750     0.8160    -0.8470 hc         1 HT4       0.041700
     15 H6           2.9800     2.1770    -0.0640 hc         1 HT4       0.041700
     16 H7           0.6020     2.0630     0.0110 ha         1 HT4       0.142000
     17 H8          -2.3600     1.1760    -1.2020 hs         1 HT4       0.205800
@<TRIPOS>BOND
     1     1     2 1   
     2     1    10 1   
     3     2     3 ar  
     4     2     8 ar  
     5     3     4 ar  
     6     3    11 1   
     7     4     5 ar  
     8     4    12 1   
     9     5     6 1   
    10     5     7 ar  
    11     6    13 1   
    12     6    14 1   
    13     6    15 1   
    14     7     8 ar  
    15     7    16 1   
    16     8     9 1   
    17     9    17 1   
@<TRIPOS>SUBSTRUCTURE
     1 HT4         1 TEMP              0 ****  ****    0 ROOT
