@<TRIPOS>MOLECULE
HT4
   17    17     1     0     0
SMALL
No Charge or Current Charge


@<TRIPOS>ATOM
      1 O1          -1.6570    -2.0130     0.2090 oh         1 HT4      -0.530100
      2 C1          -0.5280    -1.2600     0.1380 ca         1 HT4       0.181100
      3 C6           0.7250    -1.8630     0.3200 ca         1 HT4      -0.156000
      4 C5           1.8950    -1.0890     0.2480 ca         1 HT4      -0.050000
      5 C4           1.8100     0.2920    -0.0050 ca         1 HT4      -0.126300
      6 C7           3.0740     1.1350    -0.0880 c3         1 HT4      -0.039800
      7 C3           0.5470     0.8900    -0.1890 ca         1 HT4      -0.026000
      8 C2          -0.6310     0.1200    -0.1180 ca         1 HT4      -0.209000
      9 S1          -2.2260     0.8980    -0.3530 sh         1 HT4      -0.229800
     10 H1          -2.4070    -1.4000     0.0540 ho         1 HT4       0.484000
     11 H2           0.7900    -2.9300     0.5160 ha         1 HT4       0.131000
     12 H3           2.8640    -1.5640     0.3880 ha         1 HT4       0.116000
     13 H4           3.8820     0.7070     0.5160 hc         1 HT4       0.041700
     14 H5           3.4300     1.2050    -1.1230 hc         1 HT4       0.041700
     15 H6           2.8990     2.1550     0.2750 hc         1 HT4       0.041700
     16 H7           0.4820     1.9580    -0.3890 ha         1 HT4       0.124000
     17 H8          -1.7610     2.1560    -0.5510 hs         1 HT4       0.205800
@<TRIPOS>BOND
     1     1     2 1   
     2     1    10 1   
     3     2     3 ar  
     4     2     8 ar  
     5     3     4 ar  
     6     3    11 1   
     7     4     5 ar  
     8     4    12 1   
     9     5     6 1   
    10     5     7 ar  
    11     6    13 1   
    12     6    14 1   
    13     6    15 1   
    14     7     8 ar  
    15     7    16 1   
    16     8     9 1   
    17     9    17 1   
@<TRIPOS>SUBSTRUCTURE
     1 HT4         1 TEMP              0 ****  ****    0 ROOT
