@<TRIPOS>MOLECULE
HT5
   43    43     1     0     0
SMALL
abcg2


@<TRIPOS>ATOM
      1 O1          -1.6190     0.3340     1.7230 o          1 HT5      -0.588100
      2 C10         -1.5680     0.6060     0.5340 c          1 HT5       0.609100
      3 N2          -2.6720     0.7080    -0.2370 ns         1 HT5      -0.495900
      4 SD          -6.2520    -0.9390    -0.1790 ss         1 HT5      -0.361600
      5 C11         -3.9980     0.4960     0.2500 c5         1 HT5      -0.000300
      6 C12         -4.4920    -0.9240    -0.0300 c          1 HT5       0.585700
      7 O2          -3.7990    -1.8970    -0.1350 o          1 HT5      -0.457100
      8 C13         -5.0370     1.4390    -0.3370 c5         1 HT5      -0.091400
      9 C14         -6.3960     0.8670     0.0370 c5         1 HT5       0.060600
     10 C9          -0.2710     0.9210    -0.1770 c3         1 HT5      -0.152400
     11 C2           0.9290     0.1710     0.3840 c3         1 HT5      -0.067400
     12 C1           2.2340     0.6050    -0.2730 c3         1 HT5      -0.075400
     13 C50          3.4470    -0.1330     0.2770 c3         1 HT5      -0.074400
     14 C8           9.8300    -0.1250    -0.3360 c3         1 HT5      -0.088100
     15 C6           8.5110    -0.6240     0.2380 c3         1 HT5      -0.075400
     16 C3           4.7630     0.3330    -0.3320 c3         1 HT5      -0.074400
     17 C4           5.9770    -0.3910     0.2380 c3         1 HT5      -0.075400
     18 C5           7.2990     0.0900    -0.3470 c3         1 HT5      -0.075400
     19 H11         -3.9910     0.6030     1.3410 h1         1 HT5       0.114700
     20 H141        -7.1970     1.2320    -0.6020 h1         1 HT5       0.080700
     21 H142        -6.6510     1.0800     1.0740 h1         1 HT5       0.080700
     22 H131        -4.9210     2.4500     0.0500 hc         1 HT5       0.067200
     23 H132        -4.9340     1.4760    -1.4250 hc         1 HT5       0.067200
     24 HA          -2.5590     0.8600    -1.2270 hn         1 HT5       0.316500
     25 H9C1        -0.3670     0.7350    -1.2500 hc         1 HT5       0.056200
     26 H9C2        -0.1100     2.0010    -0.0740 hc         1 HT5       0.056200
     27 H2C1         0.9950     0.3370     1.4610 hc         1 HT5       0.057700
     28 H2C2         0.7900    -0.9050     0.2430 hc         1 HT5       0.057700
     29 H1C1         2.1720     0.4520    -1.3550 hc         1 HT5       0.035200
     30 H1C2         2.3670     1.6830    -0.1270 hc         1 HT5       0.035200
     31 H501         3.4870    -0.0040     1.3640 hc         1 HT5       0.041200
     32 H502         3.3280    -1.2090     0.1060 hc         1 HT5       0.041200
     33 H3C1         4.7330     0.1930    -1.4190 hc         1 HT5       0.036700
     34 H3C2         4.8740     1.4110    -0.1700 hc         1 HT5       0.036700
     35 H4C1         5.9960    -0.2620     1.3260 hc         1 HT5       0.037700
     36 H4C2         5.8730    -1.4680     0.0640 hc         1 HT5       0.037700
     37 H5C1         7.3970     1.1690    -0.1790 hc         1 HT5       0.036700
     38 H5C2         7.2880    -0.0450    -1.4340 hc         1 HT5       0.036700
     39 H6C1         8.4170    -1.7000     0.0610 hc         1 HT5       0.036700
     40 H6C2         8.5140    -0.4970     1.3260 hc         1 HT5       0.036700
     41 H8C1         9.8720    -0.2730    -1.4170 hc         1 HT5       0.031367
     42 H8C2         9.9620     0.9420    -0.1470 hc         1 HT5       0.031367
     43 H8C3        10.6810    -0.6470     0.1020 hc         1 HT5       0.031367
@<TRIPOS>BOND
     1     1     2 2   
     2     2     3 1   
     3     2    10 1   
     4     3     5 1   
     5     3    24 1   
     6     4     6 1   
     7     4     9 1   
     8     5     6 1   
     9     5     8 1   
    10     5    19 1   
    11     6     7 2   
    12     8     9 1   
    13     8    22 1   
    14     8    23 1   
    15     9    20 1   
    16     9    21 1   
    17    10    11 1   
    18    10    25 1   
    19    10    26 1   
    20    11    12 1   
    21    11    27 1   
    22    11    28 1   
    23    12    13 1   
    24    12    29 1   
    25    12    30 1   
    26    13    16 1   
    27    13    31 1   
    28    13    32 1   
    29    14    15 1   
    30    14    41 1   
    31    14    42 1   
    32    14    43 1   
    33    15    18 1   
    34    15    39 1   
    35    15    40 1   
    36    16    17 1   
    37    16    33 1   
    38    16    34 1   
    39    17    18 1   
    40    17    35 1   
    41    17    36 1   
    42    18    37 1   
    43    18    38 1   
@<TRIPOS>SUBSTRUCTURE
     1 HT5         1 TEMP              0 ****  ****    0 ROOT
