@<TRIPOS>MOLECULE
HT5
   43    43     1     0     0
SMALL
No Charge or Current Charge


@<TRIPOS>ATOM
      1 O1          -1.9570     1.5280     1.6010 o          1 HT5      -0.588100
      2 C10         -1.6740     1.1220     0.4820 c          1 HT5       0.609100
      3 N2          -2.5330     0.3510    -0.2790 ns         1 HT5      -0.495900
      4 SD          -6.1760    -1.0180    -0.8100 ss         1 HT5      -0.361600
      5 C11         -3.8560    -0.0150     0.2860 c5         1 HT5      -0.000300
      6 C12         -4.4060    -1.2440    -0.4850 c          1 HT5       0.585700
      7 O2          -3.7720    -2.2170    -0.8710 o          1 HT5      -0.457100
      8 C13         -4.7870     1.1870    -0.0630 c5         1 HT5      -0.091400
      9 C14         -6.2000     0.5770     0.1440 c5         1 HT5       0.060600
     10 C9          -0.3430     1.4600    -0.1980 c3         1 HT5      -0.152400
     11 C2           0.8280     0.6540     0.4120 c3         1 HT5      -0.067400
     12 C1           2.1870     0.9680    -0.2530 c3         1 HT5      -0.075400
     13 C50          3.3570     0.1640     0.3540 c3         1 HT5      -0.074400
     14 C8           9.7690    -0.5040    -0.4260 c3         1 HT5      -0.088100
     15 C6           8.4140    -0.8160     0.2380 c3         1 HT5      -0.075400
     16 C3           4.7150     0.4770    -0.3110 c3         1 HT5      -0.074400
     17 C4           5.8860    -0.3260     0.2960 c3         1 HT5      -0.075400
     18 C5           7.2440    -0.0130    -0.3700 c3         1 HT5      -0.075400
     19 H11         -3.8460    -0.2520     1.3600 h1         1 HT5       0.114700
     20 H141        -7.0000     1.2350    -0.2220 h1         1 HT5       0.080700
     21 H142        -6.3890     0.3660     1.2050 h1         1 HT5       0.080700
     22 H131        -4.6150     2.0550     0.5830 hc         1 HT5       0.067200
     23 H132        -4.6590     1.5210    -1.1000 hc         1 HT5       0.067200
     24 HA          -2.2020     0.0540    -1.1910 hn         1 HT5       0.316500
     25 H9C1        -0.4010     1.2330    -1.2690 hc         1 HT5       0.056200
     26 H9C2        -0.1400     2.5290    -0.0570 hc         1 HT5       0.056200
     27 H2C1         0.8950     0.8690     1.4860 hc         1 HT5       0.057700
     28 H2C2         0.6170    -0.4180     0.3140 hc         1 HT5       0.057700
     29 H1C1         2.1200     0.7510    -1.3270 hc         1 HT5       0.035200
     30 H1C2         2.3970     2.0400    -0.1550 hc         1 HT5       0.035200
     31 H501         3.4240     0.3800     1.4280 hc         1 HT5       0.041200
     32 H502         3.1470    -0.9090     0.2560 hc         1 HT5       0.041200
     33 H3C1         4.6480     0.2610    -1.3850 hc         1 HT5       0.036700
     34 H3C2         4.9250     1.5500    -0.2130 hc         1 HT5       0.036700
     35 H4C1         5.9520    -0.1100     1.3700 hc         1 HT5       0.037700
     36 H4C2         5.6750    -1.3990     0.1970 hc         1 HT5       0.037700
     37 H5C1         7.4540     1.0600    -0.2710 hc         1 HT5       0.036700
     38 H5C2         7.1770    -0.2290    -1.4430 hc         1 HT5       0.036700
     39 H6C1         8.2090    -1.8890     0.1390 hc         1 HT5       0.036700
     40 H6C2         8.4850    -0.6010     1.3110 hc         1 HT5       0.036700
     41 H8C1         9.7420    -0.7420    -1.4960 hc         1 HT5       0.031367
     42 H8C2        10.0210     0.5580    -0.3140 hc         1 HT5       0.031367
     43 H8C3        10.5670    -1.0960     0.0370 hc         1 HT5       0.031367
@<TRIPOS>BOND
     1     1     2 2   
     2     2     3 1   
     3     2    10 1   
     4     3     5 1   
     5     3    24 1   
     6     4     6 1   
     7     4     9 1   
     8     5     6 1   
     9     5     8 1   
    10     5    19 1   
    11     6     7 2   
    12     8     9 1   
    13     8    22 1   
    14     8    23 1   
    15     9    20 1   
    16     9    21 1   
    17    10    11 1   
    18    10    25 1   
    19    10    26 1   
    20    11    12 1   
    21    11    27 1   
    22    11    28 1   
    23    12    13 1   
    24    12    29 1   
    25    12    30 1   
    26    13    16 1   
    27    13    31 1   
    28    13    32 1   
    29    14    15 1   
    30    14    41 1   
    31    14    42 1   
    32    14    43 1   
    33    15    18 1   
    34    15    39 1   
    35    15    40 1   
    36    16    17 1   
    37    16    33 1   
    38    16    34 1   
    39    17    18 1   
    40    17    35 1   
    41    17    36 1   
    42    18    37 1   
    43    18    38 1   
@<TRIPOS>SUBSTRUCTURE
     1 HT5         1 TEMP              0 ****  ****    0 ROOT
