@<TRIPOS>MOLECULE
HT6
   54    56     1     0     0
SMALL
No Charge or Current Charge


@<TRIPOS>ATOM
      1 O3A          0.3230     3.2150     1.0440 oh         1 HT6      -0.641000
      2 C3A          0.2010     2.4720    -0.1740 c5         1 HT6       0.173300
      3 C4A         -0.6500     1.1820     0.0180 c5         1 HT6      -0.058700
      4 C5A         -2.1740     1.4120    -0.0640 c3         1 HT6       0.072600
      5 S5A         -3.1370    -0.1520     0.1580 ss         1 HT6      -0.445000
      6 C20         -4.8550     0.5100    -0.0050 c3         1 HT6       0.066600
      7 C21         -5.8860    -0.6260     0.1400 c3         1 HT6      -0.065400
      8 C22         -7.3440    -0.1330     0.0130 c3         1 HT6      -0.074400
      9 C23         -8.3810    -1.2690     0.1580 c3         1 HT6      -0.076400
     10 C24         -9.8390    -0.7760     0.0300 c3         1 HT6      -0.074400
     11 C25        -10.8740    -1.9080     0.1750 c3         1 HT6      -0.089100
     12 C2A          1.5720     1.9150    -0.7090 c5         1 HT6       0.125800
     13 N1A          1.3760     0.4430    -0.8000 n3         1 HT6      -0.691600
     14 C1A         -0.0610     0.2800    -1.0920 c5         1 HT6       0.165800
     15 C10          2.3040    -0.2830    -1.6880 c3         1 HT6       0.256000
     16 C9           3.7410    -0.1190    -1.2700 cc         1 HT6      -0.261000
     17 C4           4.4060    -0.8300    -0.2190 ca         1 HT6       0.142800
     18 N3           3.9070    -1.7730     0.6010 nb         1 HT6      -0.146000
     19 C2           4.7970    -2.2590     1.5020 ca         1 HT6       0.135900
     20 N1           6.0990    -1.8920     1.6400 nb         1 HT6      -0.270000
     21 C6           6.5490    -0.9470     0.7950 ca         1 HT6       0.385900
     22 N6           7.8550    -0.5910     0.9330 nv         1 HT6      -1.073900
     23 C5           5.6960    -0.3880    -0.1670 ca         1 HT6      -0.221200
     24 N7           5.9270     0.5880    -1.1290 na         1 HT6      -0.203700
     25 C8           4.6950     0.7440    -1.8130 cd         1 HT6      -0.149100
     26 H1           0.9000     3.9860     0.8500 ho         1 HT6       0.439000
     27 H2          -0.2510     3.1060    -0.9490 h1         1 HT6       0.026700
     28 H3          -0.4510     0.7370     0.9990 hc         1 HT6       0.098700
     29 H4          -2.4730     2.1240     0.7170 h1         1 HT6       0.056200
     30 H5          -2.4260     1.8510    -1.0390 h1         1 HT6       0.056200
     31 H6          -5.0240     1.2670     0.7720 h1         1 HT6       0.053700
     32 H7          -4.9650     0.9880    -0.9870 h1         1 HT6       0.053700
     33 H8          -5.6910    -1.3860    -0.6260 hc         1 HT6       0.053200
     34 H9          -5.7500    -1.1090     1.1160 hc         1 HT6       0.053200
     35 H10         -7.5340     0.6290     0.7790 hc         1 HT6       0.037700
     36 H11         -7.4750     0.3530    -0.9620 hc         1 HT6       0.037700
     37 H12         -8.1900    -2.0310    -0.6080 hc         1 HT6       0.039200
     38 H13         -8.2490    -1.7550     1.1330 hc         1 HT6       0.039200
     39 H14        -10.0340    -0.0150     0.7960 hc         1 HT6       0.036200
     40 H15         -9.9750    -0.2910    -0.9440 hc         1 HT6       0.036200
     41 H16        -11.8910    -1.5110     0.0780 hc         1 HT6       0.031700
     42 H17        -10.7270    -2.6690    -0.6010 hc         1 HT6       0.031700
     43 H18        -10.7860    -2.3910     1.1560 hc         1 HT6       0.031700
     44 H19          1.7900     2.3470    -1.6960 h1         1 HT6       0.036200
     45 H20          2.4120     2.1640    -0.0450 h1         1 HT6       0.036200
     46 H22         -0.3890    -0.7650    -0.9960 h1         1 HT6       0.044200
     47 H23         -0.3230     0.6380    -2.0990 h1         1 HT6       0.044200
     48 H24          2.0610    -1.3540    -1.6850 h1         1 HT6       0.037200
     49 H25          2.1920     0.0720    -2.7220 h1         1 HT6       0.037200
     50 H26          4.4300    -3.0240     2.1840 h5         1 HT6       0.045100
     51 H27          8.4480    -1.1740     1.5190 hn         1 HT6       0.482000
     52 H28          8.3160    -0.1010     0.1710 hn         1 HT6       0.482000
     53 H29          6.7890     1.0990    -1.3010 hn         1 HT6       0.349000
     54 H30          4.5840     1.4570    -2.6280 h4         1 HT6       0.212000
@<TRIPOS>BOND
     1     1     2 1   
     2     1    26 1   
     3     2     3 1   
     4     2    12 1   
     5     2    27 1   
     6     3     4 1   
     7     3    14 1   
     8     3    28 1   
     9     4     5 1   
    10     4    29 1   
    11     4    30 1   
    12     5     6 1   
    13     6     7 1   
    14     6    31 1   
    15     6    32 1   
    16     7     8 1   
    17     7    33 1   
    18     7    34 1   
    19     8     9 1   
    20     8    35 1   
    21     8    36 1   
    22     9    10 1   
    23     9    37 1   
    24     9    38 1   
    25    10    11 1   
    26    10    39 1   
    27    10    40 1   
    28    11    41 1   
    29    11    42 1   
    30    11    43 1   
    31    12    13 1   
    32    12    44 1   
    33    12    45 1   
    34    13    14 1   
    35    13    15 1   
    36    14    46 1   
    37    14    47 1   
    38    15    16 1   
    39    15    48 1   
    40    15    49 1   
    41    16    17 1   
    42    16    25 2   
    43    17    18 ar  
    44    17    23 ar  
    45    18    19 ar  
    46    19    20 ar  
    47    19    50 1   
    48    20    21 ar  
    49    21    22 1   
    50    21    23 ar  
    51    22    51 1   
    52    22    52 1   
    53    23    24 1   
    54    24    25 1   
    55    24    53 1   
    56    25    54 1   
@<TRIPOS>SUBSTRUCTURE
     1 HT6         1 TEMP              0 ****  ****    0 ROOT
