@<TRIPOS>MOLECULE
HT6
   54    56     1     0     0
SMALL
abcg2


@<TRIPOS>ATOM
      1 O3A          0.9070     2.4770     1.8070 oh         1 HT6      -0.641000
      2 C3A          0.2960     2.1340     0.5830 c5         1 HT6       0.173300
      3 C4A         -0.6870     0.9690     0.8360 c5         1 HT6      -0.058700
      4 C5A         -2.1230     1.3360     0.5010 c3         1 HT6       0.072600
      5 S5A         -3.2150    -0.0740     0.8410 ss         1 HT6      -0.445000
      6 C20         -4.7870     0.5710     0.2000 c3         1 HT6       0.066600
      7 C21         -5.8650    -0.4990     0.2890 c3         1 HT6      -0.065400
      8 C22         -7.2080    -0.0040    -0.2350 c3         1 HT6      -0.074400
      9 C23         -8.2930    -1.0730    -0.1790 c3         1 HT6      -0.076400
     10 C24         -9.6380    -0.5940    -0.7100 c3         1 HT6      -0.074400
     11 C25        -10.7120    -1.6730    -0.6590 c3         1 HT6      -0.089100
     12 C2A          1.2720     1.5620    -0.4440 c5         1 HT6       0.125800
     13 N1A          1.2620     0.1410    -0.1740 n3         1 HT6      -0.691600
     14 C1A         -0.1400    -0.1810    -0.0180 c5         1 HT6       0.165800
     15 C10          1.9370    -0.6730    -1.1600 c3         1 HT6       0.256000
     16 C9           3.4000    -0.3930    -1.2140 cc         1 HT6      -0.261000
     17 C4           4.3660    -0.6790    -0.2080 ca         1 HT6       0.142800
     18 N3           4.2230    -1.2780     0.9920 nb         1 HT6      -0.146000
     19 C2           5.3410    -1.3880     1.6680 ca         1 HT6       0.135900
     20 N1           6.5670    -0.9880     1.3170 nb         1 HT6      -0.270000
     21 C6           6.7360    -0.3980     0.1370 ca         1 HT6       0.385900
     22 N6           7.9650     0.0400    -0.1990 nv         1 HT6      -1.073900
     23 C5           5.6050    -0.2290    -0.6780 ca         1 HT6      -0.221200
     24 N7           5.4120     0.3120    -1.9170 na         1 HT6      -0.203700
     25 C8           4.0940     0.2110    -2.2320 cd         1 HT6      -0.149100
     26 H1           1.4960     3.2210     1.6500 ho         1 HT6       0.439000
     27 H2          -0.2240     3.0040     0.1600 h1         1 HT6       0.026700
     28 H3          -0.6260     0.7030     1.8960 hc         1 HT6       0.098700
     29 H4          -2.4480     2.1960     1.0910 h1         1 HT6       0.056200
     30 H5          -2.2110     1.6010    -0.5560 h1         1 HT6       0.056200
     31 H6          -5.0750     1.4550     0.7730 h1         1 HT6       0.053700
     32 H7          -4.6420     0.8790    -0.8380 h1         1 HT6       0.053700
     33 H8          -5.5520    -1.3790    -0.2810 hc         1 HT6       0.053200
     34 H9          -5.9750    -0.8230     1.3280 hc         1 HT6       0.053200
     35 H10         -7.5270     0.8700     0.3430 hc         1 HT6       0.037700
     36 H11         -7.0910     0.3390    -1.2680 hc         1 HT6       0.037700
     37 H12         -7.9680    -1.9490    -0.7520 hc         1 HT6       0.039200
     38 H13         -8.4120    -1.4160     0.8550 hc         1 HT6       0.039200
     39 H14         -9.9650     0.2780    -0.1350 hc         1 HT6       0.036200
     40 H15         -9.5180    -0.2490    -1.7410 hc         1 HT6       0.036200
     41 H16        -11.6590    -1.3170    -1.0640 hc         1 HT6       0.031700
     42 H17        -10.4150    -2.5500    -1.2370 hc         1 HT6       0.031700
     43 H18        -10.8950    -2.0020     0.3660 hc         1 HT6       0.031700
     44 H19          0.9020     1.7860    -1.4610 h1         1 HT6       0.036200
     45 H20          2.2750     1.9880    -0.3630 h1         1 HT6       0.036200
     46 H22         -0.2700    -1.1630     0.4440 h1         1 HT6       0.044200
     47 H23         -0.6710    -0.2060    -0.9890 h1         1 HT6       0.044200
     48 H24          1.7740    -1.7220    -0.8960 h1         1 HT6       0.037200
     49 H25          1.5040    -0.5340    -2.1660 h1         1 HT6       0.037200
     50 H26          5.2750    -1.8680     2.6400 h5         1 HT6       0.045100
     51 H27          8.7400    -0.2710     0.3630 hn         1 HT6       0.482000
     52 H28          8.1850     0.2590    -1.1550 hn         1 HT6       0.482000
     53 H29          6.1120     0.7100    -2.5200 hn         1 HT6       0.349000
     54 H30          3.7290     0.5830    -3.1770 h4         1 HT6       0.212000
@<TRIPOS>BOND
     1     1     2 1   
     2     1    26 1   
     3     2     3 1   
     4     2    12 1   
     5     2    27 1   
     6     3     4 1   
     7     3    14 1   
     8     3    28 1   
     9     4     5 1   
    10     4    29 1   
    11     4    30 1   
    12     5     6 1   
    13     6     7 1   
    14     6    31 1   
    15     6    32 1   
    16     7     8 1   
    17     7    33 1   
    18     7    34 1   
    19     8     9 1   
    20     8    35 1   
    21     8    36 1   
    22     9    10 1   
    23     9    37 1   
    24     9    38 1   
    25    10    11 1   
    26    10    39 1   
    27    10    40 1   
    28    11    41 1   
    29    11    42 1   
    30    11    43 1   
    31    12    13 1   
    32    12    44 1   
    33    12    45 1   
    34    13    14 1   
    35    13    15 1   
    36    14    46 1   
    37    14    47 1   
    38    15    16 1   
    39    15    48 1   
    40    15    49 1   
    41    16    17 1   
    42    16    25 2   
    43    17    18 ar  
    44    17    23 ar  
    45    18    19 ar  
    46    19    20 ar  
    47    19    50 1   
    48    20    21 ar  
    49    21    22 1   
    50    21    23 ar  
    51    22    51 1   
    52    22    52 1   
    53    23    24 1   
    54    24    25 1   
    55    24    53 1   
    56    25    54 1   
@<TRIPOS>SUBSTRUCTURE
     1 HT6         1 TEMP              0 ****  ****    0 ROOT
