@<TRIPOS>MOLECULE
HT7
   29    30     1     0     0
SMALL
bcc


@<TRIPOS>ATOM
      1 N            1.3270     0.9210     0.5800 n8         1 HT7      -0.849800
      2 CB           1.6660    -0.3220    -0.0960 c3         1 HT7       0.177500
      3 CG           0.5910    -0.8240    -1.0810 c3         1 HT7      -0.060200
      4 CD          -0.7570    -0.9900    -0.4580 cc         1 HT7      -0.110400
      5 CE2         -1.7870     0.0020    -0.3410 ca         1 HT7      -0.099800
      6 CZ3         -1.9070     1.3290    -0.7700 ca         1 HT7      -0.069000
      7 CH3         -3.0670     2.0230    -0.4900 ca         1 HT7      -0.173000
      8 CT2         -4.1200     1.4180     0.2180 ca         1 HT7      -0.117000
      9 CH2         -4.0340     0.1100     0.6520 ca         1 HT7      -0.157000
     10 CZ2         -2.8610    -0.5880     0.3650 ca         1 HT7      -0.049200
     11 NZ1         -2.4970    -1.8680     0.6590 na         1 HT7      -0.181400
     12 CE1         -1.2420    -2.1050     0.1670 cd         1 HT7      -0.120100
     13 CA           3.0040    -0.1570    -0.8050 c3         1 HT7      -0.197400
     14 C            4.1610     0.1760     0.1500 c          1 HT7       0.941600
     15 O            4.3070    -0.5820     1.1310 o          1 HT7      -0.845800
     16 OXT          4.8800     1.1560    -0.1350 o          1 HT7      -0.845800
     17 HN1          1.2310     1.6630    -0.1050 hn         1 HT7       0.316300
     18 HA2          0.4180     0.8340     1.0210 hn         1 HT7       0.316300
     19 HA           1.7840    -1.0880     0.6760 h1         1 HT7       0.073700
     20 HA1          0.5290    -0.1230    -1.9220 hc         1 HT7       0.039200
     21 HB2          0.9230    -1.7780    -1.5010 hc         1 HT7       0.039200
     22 HB1          3.2400    -1.0910    -1.3270 hc         1 HT7       0.013200
     23 HC2          2.9080     0.6130    -1.5780 hc         1 HT7       0.013200
     24 HE1         -0.7800    -3.0720     0.2970 h4         1 HT7       0.162000
     25 HZ3         -1.1020     1.8080    -1.3150 ha         1 HT7       0.137000
     26 HH3         -3.1720     3.0500    -0.8170 ha         1 HT7       0.121000
     27 HT2         -5.0160     1.9890     0.4270 ha         1 HT7       0.116000
     28 HH2         -4.8460    -0.3550     1.1960 ha         1 HT7       0.120000
     29 HZ1         -3.0580    -2.5390     1.1550 hn         1 HT7       0.289700
@<TRIPOS>BOND
     1     1     2 1   
     2     1    17 1   
     3     1    18 1   
     4     2     3 1   
     5     2    13 1   
     6     2    19 1   
     7     3     4 1   
     8     3    20 1   
     9     3    21 1   
    10     4     5 1   
    11     4    12 2   
    12     5     6 ar  
    13     5    10 ar  
    14     6     7 ar  
    15     6    25 1   
    16     7     8 ar  
    17     7    26 1   
    18     8     9 ar  
    19     8    27 1   
    20     9    10 ar  
    21     9    28 1   
    22    10    11 1   
    23    11    12 1   
    24    11    29 1   
    25    12    24 1   
    26    13    14 1   
    27    13    22 1   
    28    13    23 1   
    29    14    15 1   
    30    14    16 1   
@<TRIPOS>SUBSTRUCTURE
     1 HT7         1 TEMP              0 ****  ****    0 ROOT
