@<TRIPOS>MOLECULE
HT7
   29    30     1     0     0
SMALL
No Charge or Current Charge


@<TRIPOS>ATOM
      1 N            1.2660     1.0360     0.4790 n8         1 HT7      -0.960200
      2 CB           1.6940    -0.2400    -0.1170 c3         1 HT7       0.177500
      3 CG           0.5880    -0.7740    -1.0670 c3         1 HT7      -0.060200
      4 CD          -0.7520    -0.9680    -0.3990 cc         1 HT7      -0.110400
      5 CE2         -1.8190    -0.0100    -0.2970 ca         1 HT7      -0.099800
      6 CZ3         -1.9210     1.2990    -0.7940 ca         1 HT7      -0.051000
      7 CH3         -3.1110     2.0120    -0.5400 ca         1 HT7      -0.155000
      8 CT2         -4.1630     1.4110     0.1910 ca         1 HT7      -0.099000
      9 CH2         -4.0310     0.0910     0.6700 ca         1 HT7      -0.139000
     10 CZ2         -2.8370    -0.5940     0.4040 ca         1 HT7      -0.049200
     11 NZ1         -2.5050    -1.8850     0.7680 na         1 HT7      -0.231700
     12 CE1         -1.2020    -2.1090     0.2580 cd         1 HT7      -0.170100
     13 CA           3.0600    -0.0900    -0.8300 c3         1 HT7      -0.197400
     14 C            4.2030    -0.0390     0.1970 c          1 HT7       0.731000
     15 O            4.6440    -1.1000     0.6160 o          1 HT7      -0.740500
     16 OXT          4.6370     1.0510     0.5420 o          1 HT7      -0.740500
     17 HN1          1.3430     1.7670    -0.2330 hn         1 HT7       0.371500
     18 HA2          0.2560     0.9660     0.6480 hn         1 HT7       0.371500
     19 HA           1.7990    -0.9790     0.6930 h1         1 HT7       0.073700
     20 HA1          0.4820    -0.0950    -1.9220 hc         1 HT7       0.039200
     21 HB2          0.9140    -1.7340    -1.4850 hc         1 HT7       0.039200
     22 HB1          3.1680    -1.0010    -1.4320 hc         1 HT7       0.013200
     23 HC2          3.0210     0.8250    -1.4340 hc         1 HT7       0.013200
     24 HE1         -0.6890    -3.0570     0.4040 h4         1 HT7       0.212000
     25 HZ3         -1.1100     1.7510    -1.3610 ha         1 HT7       0.119000
     26 HH3         -3.2210     3.0290    -0.9100 ha         1 HT7       0.103000
     27 HT2         -5.0780     1.9680     0.3820 ha         1 HT7       0.098000
     28 HH2         -4.8360    -0.3820     1.2290 ha         1 HT7       0.102000
     29 HZ1         -3.0790    -2.5380     1.2930 hn         1 HT7       0.340000
@<TRIPOS>BOND
     1     1     2 1   
     2     1    17 1   
     3     1    18 1   
     4     2     3 1   
     5     2    13 1   
     6     2    19 1   
     7     3     4 1   
     8     3    20 1   
     9     3    21 1   
    10     4     5 1   
    11     4    12 2   
    12     5     6 ar  
    13     5    10 ar  
    14     6     7 ar  
    15     6    25 1   
    16     7     8 ar  
    17     7    26 1   
    18     8     9 ar  
    19     8    27 1   
    20     9    10 ar  
    21     9    28 1   
    22    10    11 1   
    23    11    12 1   
    24    11    29 1   
    25    12    24 1   
    26    13    14 1   
    27    13    22 1   
    28    13    23 1   
    29    14    15 1   
    30    14    16 1   
@<TRIPOS>SUBSTRUCTURE
     1 HT7         1 TEMP              0 ****  ****    0 ROOT
