@<TRIPOS>MOLECULE
HT8
   44    47     1     0     0
SMALL
bcc


@<TRIPOS>ATOM
      1 C2          -2.2240     1.4230    -0.3470 c6         1 HT8       0.149100
      2 C3          -3.6830     1.4140     0.0830 c6         1 HT8       0.104100
      3 C4          -4.3830     0.1890    -0.4880 c6         1 HT8       0.086100
      4 C5          -3.6420    -1.0740    -0.0420 c6         1 HT8       0.121100
      5 O5          -2.2760    -1.0080    -0.4340 os         1 HT8      -0.365600
      6 C1          -1.5300     0.0970    -0.0180 c5         1 HT8       0.258000
      7 N1          -0.2650     0.0350    -0.7040 n2         1 HT8      -0.609900
      8 C15          0.6570    -0.0190     0.1760 ce         1 HT8       0.550500
      9 N3           0.2010    -0.0310     1.4850 ns         1 HT8      -0.522400
     10 C16         -1.1590     0.0170     1.4850 c          1 HT8       0.676500
     11 O4          -1.8880    -0.0170     2.4460 o          1 HT8      -0.579500
     12 C17          2.0830    -0.0760    -0.1420 ca         1 HT8      -0.132900
     13 C6           2.4660    -0.2410    -1.4970 ca         1 HT8      -0.082000
     14 C7           3.7830    -0.2920    -1.8410 ca         1 HT8      -0.124000
     15 C8           4.7980    -0.1760    -0.8590 ca         1 HT8      -0.019000
     16 C9           4.4200    -0.0060     0.4970 ca         1 HT8      -0.048000
     17 C10          3.0480     0.0400     0.8280 ca         1 HT8      -0.084000
     18 C11          6.1700    -0.2230    -1.1880 ca         1 HT8      -0.120000
     19 C12          7.1230    -0.1030    -0.2110 ca         1 HT8      -0.115000
     20 C13          6.7470     0.0680     1.1370 ca         1 HT8      -0.126000
     21 C14          5.4250     0.1150     1.4850 ca         1 HT8      -0.111000
     22 O2          -1.4790     2.4300     0.2810 oh         1 HT8      -0.592800
     23 O3          -4.2460     2.6140    -0.3930 oh         1 HT8      -0.606800
     24 O1          -5.7100     0.1980    -0.0120 oh         1 HT8      -0.596800
     25 C18         -4.2130    -2.3190    -0.6850 c3         1 HT8       0.148400
     26 O6          -3.5750    -3.4490    -0.1430 oh         1 HT8      -0.578800
     27 H1          -2.1960     1.5300    -1.4430 h1         1 HT8       0.071700
     28 H2          -3.7430     1.3690     1.1800 h1         1 HT8       0.076700
     29 H3          -4.3540     0.2500    -1.5850 h1         1 HT8       0.054700
     30 H4          -3.7330    -1.1710     1.0480 h1         1 HT8       0.086700
     31 H5           0.7600    -0.1600     2.3150 hn         1 HT8       0.347500
     32 H6           1.6990    -0.3290    -2.2540 ha         1 HT8       0.161000
     33 H7           4.0660    -0.4230    -2.8780 ha         1 HT8       0.138000
     34 H8           2.7910     0.1840     1.8710 ha         1 HT8       0.129000
     35 H9           6.4600    -0.3560    -2.2230 ha         1 HT8       0.135000
     36 H10          8.1730    -0.1390    -0.4710 ha         1 HT8       0.133000
     37 H11          7.5110     0.1620     1.8970 ha         1 HT8       0.134000
     38 H12          5.1340     0.2460     2.5200 ha         1 HT8       0.132000
     39 H13         -1.9140     3.2750     0.1280 ho         1 HT8       0.430000
     40 H14         -5.1320     2.6990    -0.0260 ho         1 HT8       0.425000
     41 H15         -6.2890    -0.1740    -0.6820 ho         1 HT8       0.411000
     42 H16         -5.2930    -2.3390    -0.4940 h1         1 HT8       0.025700
     43 H17         -4.0800    -2.2540    -1.7740 h1         1 HT8       0.025700
     44 H18         -3.9800    -4.2320    -0.5250 ho         1 HT8       0.405000
@<TRIPOS>BOND
     1     1     2 1   
     2     1     6 1   
     3     1    22 1   
     4     1    27 1   
     5     2     3 1   
     6     2    23 1   
     7     2    28 1   
     8     3     4 1   
     9     3    24 1   
    10     3    29 1   
    11     4     5 1   
    12     4    25 1   
    13     4    30 1   
    14     5     6 1   
    15     6     7 1   
    16     6    10 1   
    17     7     8 2   
    18     8     9 1   
    19     8    12 1   
    20     9    10 1   
    21     9    31 1   
    22    10    11 2   
    23    12    13 ar  
    24    12    17 ar  
    25    13    14 ar  
    26    13    32 1   
    27    14    15 ar  
    28    14    33 1   
    29    15    16 ar  
    30    15    18 ar  
    31    16    17 ar  
    32    16    21 ar  
    33    17    34 1   
    34    18    19 ar  
    35    18    35 1   
    36    19    20 ar  
    37    19    36 1   
    38    20    21 ar  
    39    20    37 1   
    40    21    38 1   
    41    22    39 1   
    42    23    40 1   
    43    24    41 1   
    44    25    26 1   
    45    25    42 1   
    46    25    43 1   
    47    26    44 1   
@<TRIPOS>SUBSTRUCTURE
     1 HT8         1 TEMP              0 ****  ****    0 ROOT
