@<TRIPOS>MOLECULE
HT8
   44    47     1     0     0
SMALL
No Charge or Current Charge


@<TRIPOS>ATOM
      1 C2          -2.2850     1.4960    -0.4180 c6         1 HT8       0.172300
      2 C3          -3.7180     1.4660     0.1770 c6         1 HT8       0.127300
      3 C4          -4.4890     0.2330    -0.3640 c6         1 HT8       0.109300
      4 C5          -3.7020    -1.0750    -0.0230 c6         1 HT8       0.144300
      5 O5          -2.3190    -0.9930    -0.4760 os         1 HT8      -0.412000
      6 C1          -1.5240     0.1630    -0.0790 c5         1 HT8       0.281200
      7 N1          -0.2280     0.0910    -0.8630 n2         1 HT8      -0.609900
      8 C15          0.7000     0.0720     0.0400 ce         1 HT8       0.550500
      9 N3           0.2190     0.0430     1.3210 ns         1 HT8      -0.455400
     10 C16         -1.1170     0.0610     1.4410 c          1 HT8       0.534000
     11 O4          -1.7560    -0.0830     2.4750 o          1 HT8      -0.504000
     12 C17          2.1670    -0.0410    -0.2470 ca         1 HT8      -0.132900
     13 C6           2.6150    -0.2650    -1.5690 ca         1 HT8      -0.064000
     14 C7           3.9870    -0.3600    -1.8570 ca         1 HT8      -0.106000
     15 C8           4.9360    -0.2270    -0.8300 ca         1 HT8      -0.019000
     16 C9           4.5060     0.0070     0.4930 ca         1 HT8      -0.048000
     17 C10          3.1300     0.1020     0.7790 ca         1 HT8      -0.066000
     18 C11          6.3120    -0.3210    -1.1150 ca         1 HT8      -0.102000
     19 C12          7.2560    -0.1820    -0.0840 ca         1 HT8      -0.097000
     20 C13          6.8290     0.0520     1.2340 ca         1 HT8      -0.108000
     21 C14          5.4560     0.1470     1.5230 ca         1 HT8      -0.093000
     22 O2          -1.6040     2.6790     0.0580 oh         1 HT8      -0.715000
     23 O3          -4.4260     2.6750    -0.1540 oh         1 HT8      -0.669000
     24 O1          -5.8250     0.2220     0.1850 oh         1 HT8      -0.719000
     25 C18         -4.3430    -2.3560    -0.6510 c3         1 HT8       0.171600
     26 O6          -3.6090    -3.5600    -0.3570 oh         1 HT8      -0.701000
     27 H1          -2.3820     1.5470    -1.5130 h1         1 HT8       0.071700
     28 H2          -3.6460     1.3680     1.2710 h1         1 HT8       0.076700
     29 H3          -4.5380     0.3200    -1.4610 h1         1 HT8       0.054700
     30 H4          -3.7040    -1.2080     1.0680 h1         1 HT8       0.086700
     31 H5           0.8430    -0.0780     2.1030 hn         1 HT8       0.347500
     32 H6           1.8990    -0.3700    -2.3820 ha         1 HT8       0.143000
     33 H7           4.3090    -0.5370    -2.8810 ha         1 HT8       0.120000
     34 H8           2.8210     0.2950     1.8030 ha         1 HT8       0.111000
     35 H9           6.6500    -0.5010    -2.1330 ha         1 HT8       0.117000
     36 H10          8.3190    -0.2550    -0.3060 ha         1 HT8       0.115000
     37 H11          7.5600     0.1600     2.0320 ha         1 HT8       0.116000
     38 H12          5.1350     0.3290     2.5460 ha         1 HT8       0.114000
     39 H13         -2.2980     3.3840     0.0370 ho         1 HT8       0.529000
     40 H14         -5.3770     2.4580    -0.0070 ho         1 HT8       0.464000
     41 H15         -6.4090    -0.2600    -0.4490 ho         1 HT8       0.510000
     42 H16         -5.3710    -2.4500    -0.2740 h1         1 HT8       0.025700
     43 H17         -4.4060    -2.2110    -1.7380 h1         1 HT8       0.025700
     44 H18         -4.0470    -4.2920    -0.8510 ho         1 HT8       0.504000
@<TRIPOS>BOND
     1     1     2 1   
     2     1     6 1   
     3     1    22 1   
     4     1    27 1   
     5     2     3 1   
     6     2    23 1   
     7     2    28 1   
     8     3     4 1   
     9     3    24 1   
    10     3    29 1   
    11     4     5 1   
    12     4    25 1   
    13     4    30 1   
    14     5     6 1   
    15     6     7 1   
    16     6    10 1   
    17     7     8 2   
    18     8     9 1   
    19     8    12 1   
    20     9    10 1   
    21     9    31 1   
    22    10    11 2   
    23    12    13 ar  
    24    12    17 ar  
    25    13    14 ar  
    26    13    32 1   
    27    14    15 ar  
    28    14    33 1   
    29    15    16 ar  
    30    15    18 ar  
    31    16    17 ar  
    32    16    21 ar  
    33    17    34 1   
    34    18    19 ar  
    35    18    35 1   
    36    19    20 ar  
    37    19    36 1   
    38    20    21 ar  
    39    20    37 1   
    40    21    38 1   
    41    22    39 1   
    42    23    40 1   
    43    24    41 1   
    44    25    26 1   
    45    25    42 1   
    46    25    43 1   
    47    26    44 1   
@<TRIPOS>SUBSTRUCTURE
     1 HT8         1 TEMP              0 ****  ****    0 ROOT
