@<TRIPOS>MOLECULE
HT9
   82    86     1     0     0
SMALL
No Charge or Current Charge


@<TRIPOS>ATOM
      1 C1         108.2660   116.3360   117.1690 cc         1 HT9      -0.200800
      2 C10        109.7870   109.7090   111.9630 cc         1 HT9      -0.120300
      3 C11        109.8440   109.0630   113.2320 cc         1 HT9      -0.082300
      4 C12        109.7910   110.0200   114.2210 cd         1 HT9      -0.023800
      5 C13        109.7060   111.0630   112.1710 cd         1 HT9      -0.129800
      6 C14        109.7640   109.7990   115.6770 cf         1 HT9      -0.197200
      7 C15        108.8910   115.5970   111.1720 cc         1 HT9      -0.177800
      8 C16        109.1860   114.4420   110.4940 cd         1 HT9      -0.170200
      9 C17        109.3110   113.4790   111.4640 cc         1 HT9       0.058600
     10 C18        108.8580   115.3090   112.5230 cd         1 HT9       0.421900
     11 C19        108.6110   116.0870   113.6400 ce         1 HT9      -0.160600
     12 C2         108.2420   116.9480   115.9430 cd         1 HT9      -0.090200
     13 C20        109.5660   112.1550   111.2030 cf         1 HT9      -0.109200
     14 C22        111.3000   106.9310   113.2780 c3         1 HT9      -0.204400
     15 C23        112.2080   107.3820   114.4350 c          1 HT9       0.713000
     16 C25        109.2990   117.2370   119.3450 c3         1 HT9      -0.199400
     17 C26        110.0860   118.3970   118.7070 c          1 HT9       0.720000
     18 C27        108.6230   116.9530   110.5560 c3         1 HT9      -0.009200
     19 C28        109.8940   117.8260   110.4590 c3         1 HT9      -0.204400
     20 C29        109.5530   119.1850   109.8280 c          1 HT9       0.716000
     21 C3         108.5350   115.8940   115.0100 cd         1 HT9       0.111600
     22 C31        111.4220   108.7620   118.7880 c3         1 HT9      -0.208400
     23 C32        112.1640   109.6690   119.7800 c          1 HT9       0.715000
     24 C34        108.0150   116.9240   118.5400 c3         1 HT9       0.011800
     25 C35        109.7780   108.9700   110.6440 c3         1 HT9      -0.005800
     26 C36        107.9750   118.4030   115.6310 c3         1 HT9      -0.044900
     27 C4         108.5710   114.9650   116.9120 cc         1 HT9       0.451900
     28 C5         109.5800   110.4360   118.1370 cc         1 HT9      -0.057200
     29 C6         109.2770   111.6170   118.8000 cd         1 HT9      -0.093200
     30 C7         109.0250   112.5870   117.7810 cd         1 HT9       0.108000
     31 C8         109.5240   110.6630   116.7120 cc         1 HT9       0.149000
     32 C9         108.7210   113.9170   117.9220 ce         1 HT9      -0.254600
     33 N1         108.7290   114.6720   115.6260 nd         1 HT9      -0.634300
     34 N2         109.1610   111.9780   116.5730 na         1 HT9      -0.616000
     35 N3         109.7340   111.2420   113.5470 na         1 HT9      -0.101000
     36 N4         109.1190   114.0160   112.7130 nc         1 HT9      -0.602300
     37 O1         112.1570   106.7510   115.4800 o          1 HT9      -0.725500
     38 O2         112.9410   108.3440   114.2600 o          1 HT9      -0.725500
     39 O3         110.9880   118.1310   117.9270 o          1 HT9      -0.747000
     40 O4         109.7800   119.5390   119.0180 o          1 HT9      -0.747000
     41 O5         109.6090   119.2890   108.6120 o          1 HT9      -0.754000
     42 O6         109.1980   120.0910   110.5660 o          1 HT9      -0.754000
     43 O7         112.6830   110.6920   119.3610 o          1 HT9      -0.750500
     44 O8         112.2080   109.3220   120.9510 o          1 HT9      -0.750500
     45 H1         110.0220   108.7920   115.9960 ha         1 HT9       0.224000
     46 H2         108.4260   117.1150   113.3530 ha         1 HT9       0.207000
     47 H3         109.6540   111.8860   110.1530 ha         1 HT9       0.162000
     48 H4         109.2370   107.0870   112.6560 hc         1 HT9       0.017200
     49 H5         109.4580   107.2740   114.3690 hc         1 HT9       0.017200
     50 H6         111.1260   105.8490   113.3370 hc         1 HT9       0.002700
     51 H7         111.7050   107.2530   112.3120 hc         1 HT9       0.002700
     52 H8         108.4600   113.7540   108.5760 hc         1 HT9       0.016033
     53 H9         109.4380   115.2270   108.4770 hc         1 HT9       0.016033
     54 H10        110.2230   113.6770   108.7520 hc         1 HT9       0.016033
     55 H11        109.8970   116.3180   119.3540 hc         1 HT9       0.015200
     56 H12        108.9380   117.5330   120.3370 hc         1 HT9       0.015200
     57 H13        108.1860   116.8360   109.5570 hc         1 HT9       0.033700
     58 H14        107.8640   117.4860   111.1420 hc         1 HT9       0.033700
     59 H15        110.2470   117.9590   111.4890 hc         1 HT9       0.030200
     60 H16        110.5920   117.2700   109.8210 hc         1 HT9       0.030200
     61 H17        109.5010   109.0230   119.7620 hc         1 HT9       0.015700
     62 H18        109.3970   108.3050   118.1810 hc         1 HT9       0.015700
     63 H19        111.4740   107.7210   119.1300 hc         1 HT9       0.045700
     64 H20        111.8030   108.9100   117.7710 hc         1 HT9       0.045700
     65 H21        108.1890   111.9620   120.6320 hc         1 HT9       0.041700
     66 H22        109.6910   111.0540   120.8580 hc         1 HT9       0.041700
     67 H23        109.7550   112.7880   120.5520 hc         1 HT9       0.041700
     68 H24        107.4120   117.8360   118.4580 hc         1 HT9       0.015700
     69 H25        107.4000   116.2270   119.1220 hc         1 HT9       0.015700
     70 H26        110.7110   108.4140   110.4990 hc         1 HT9       0.022367
     71 H27        108.9460   108.2590   110.5980 hc         1 HT9       0.022367
     72 H28        109.6680   109.6520   109.7940 hc         1 HT9       0.022367
     73 H29        107.8770   119.0090   116.5380 hc         1 HT9       0.050033
     74 H30        108.7930   118.8350   115.0430 hc         1 HT9       0.050033
     75 H31        107.0490   118.5170   115.0560 hc         1 HT9       0.050033
     76 H32        108.6310   114.2600   118.9470 ha         1 HT9       0.186000
     77 H34        109.7270   112.1640   113.9640 hn         1 HT9       0.408000
     78 H33        108.9780   112.4870   115.7140 hn         1 HT9       0.565000
     79 C21        109.8890   107.5570   113.4010 c3         1 HT9       0.013900
     80 C30        109.9100   109.0910   118.7470 c3         1 HT9       0.003800
     81 C33        109.2250   111.8650   120.2890 c3         1 HT9      -0.031900
     82 C24        109.3320   114.2680   108.9960 c3         1 HT9      -0.003900
@<TRIPOS>BOND
     1     1    12 2   
     2     1    24 1   
     3     1    27 1   
     4     2     3 1   
     5     2     5 2   
     6     2    25 1   
     7     3     4 2   
     8     3    79 1   
     9     4     6 1   
    10     4    35 1   
    11     5    13 1   
    12     5    35 1   
    13     6    31 2   
    14     6    45 1   
    15     7     8 2   
    16     7    10 1   
    17     7    18 1   
    18     8     9 1   
    19     8    82 1   
    20     9    13 2   
    21     9    36 1   
    22    10    11 1   
    23    10    36 2   
    24    11    21 2   
    25    11    46 1   
    26    12    21 1   
    27    12    26 1   
    28    13    47 1   
    29    14    15 1   
    30    14    50 1   
    31    14    51 1   
    32    14    79 1   
    33    15    37 1   
    34    15    38 1   
    35    16    17 1   
    36    16    24 1   
    37    16    55 1   
    38    16    56 1   
    39    17    39 1   
    40    17    40 1   
    41    18    19 1   
    42    18    57 1   
    43    18    58 1   
    44    19    20 1   
    45    19    59 1   
    46    19    60 1   
    47    20    41 1   
    48    20    42 1   
    49    21    33 1   
    50    22    23 1   
    51    22    63 1   
    52    22    64 1   
    53    22    80 1   
    54    23    43 1   
    55    23    44 1   
    56    24    68 1   
    57    24    69 1   
    58    25    70 1   
    59    25    71 1   
    60    25    72 1   
    61    26    73 1   
    62    26    74 1   
    63    26    75 1   
    64    27    32 1   
    65    27    33 2   
    66    28    29 2   
    67    28    31 1   
    68    28    80 1   
    69    29    30 1   
    70    29    81 1   
    71    30    32 2   
    72    30    34 1   
    73    31    34 1   
    74    32    76 1   
    75    34    78 1   
    76    35    77 1   
    77    48    79 1   
    78    49    79 1   
    79    52    82 1   
    80    53    82 1   
    81    54    82 1   
    82    61    80 1   
    83    62    80 1   
    84    65    81 1   
    85    66    81 1   
    86    67    81 1   
@<TRIPOS>SUBSTRUCTURE
     1 HT9         1 TEMP              0 ****  ****    0 ROOT
