@<TRIPOS>MOLECULE
HT9
   82    86     1     0     0
SMALL
abcg2


@<TRIPOS>ATOM
      1 C1         108.2890   116.4110   117.1210 cc         1 HT9      -0.200800
      2 C10        109.6810   109.5130   112.0340 cc         1 HT9      -0.120300
      3 C11        109.7740   108.9680   113.2940 cc         1 HT9      -0.082300
      4 C12        109.6370   110.0370   114.2430 cd         1 HT9      -0.023800
      5 C13        109.4890   110.9170   112.1880 cd         1 HT9      -0.129800
      6 C14        109.6680   109.9020   115.6270 cf         1 HT9      -0.197200
      7 C15        108.8460   115.4440   111.1450 cc         1 HT9      -0.177800
      8 C16        109.0500   114.2920   110.4570 cd         1 HT9      -0.170200
      9 C17        109.1570   113.2470   111.4670 cc         1 HT9       0.058600
     10 C18        108.8300   115.0720   112.5620 cd         1 HT9       0.421900
     11 C19        108.6090   116.0050   113.5750 ce         1 HT9      -0.160600
     12 C2         108.2680   116.9420   115.8710 cd         1 HT9      -0.090200
     13 C20        109.3580   111.8940   111.2090 cf         1 HT9      -0.109200
     14 C22        111.4020   107.0480   113.2290 c3         1 HT9      -0.204400
     15 C23        112.4900   107.7660   114.0470 c          1 HT9       0.713000
     16 C25        109.3540   117.3550   119.2100 c3         1 HT9      -0.199400
     17 C26        110.1800   118.5100   118.6120 c          1 HT9       0.720000
     18 C27        108.7120   116.8420   110.6450 c3         1 HT9      -0.009200
     19 C28        109.9930   117.6670   110.8410 c3         1 HT9      -0.204400
     20 C29        109.7520   119.1910   110.8620 c          1 HT9       0.716000
     21 C3         108.5530   115.8370   114.9540 cd         1 HT9       0.111600
     22 C31        111.3070   108.8440   118.6000 c3         1 HT9      -0.208400
     23 C32        112.1490   109.7530   119.5130 c          1 HT9       0.715000
     24 C34        108.0600   117.0640   118.4440 c3         1 HT9       0.011800
     25 C35        109.7620   108.7920   110.7330 c3         1 HT9      -0.005800
     26 C36        107.9800   118.3460   115.4580 c3         1 HT9      -0.044900
     27 C4         108.6000   114.9980   116.9350 cc         1 HT9       0.451900
     28 C5         109.5070   110.5300   118.0520 cc         1 HT9      -0.057200
     29 C6         109.2300   111.6900   118.7310 cd         1 HT9      -0.093200
     30 C7         109.0410   112.7200   117.7550 cd         1 HT9       0.108000
     31 C8         109.4840   110.8290   116.6420 cc         1 HT9       0.149000
     32 C9         108.7420   114.0590   117.9570 ce         1 HT9      -0.254600
     33 N1         108.7450   114.6900   115.6320 nd         1 HT9      -0.634300
     34 N2         109.2120   112.1590   116.5280 na         1 HT9      -0.616000
     35 N3         109.4610   111.1800   113.5240 na         1 HT9      -0.101000
     36 N4         109.0290   113.7520   112.7130 nc         1 HT9      -0.602300
     37 O1         112.4200   107.6180   115.2870 o          1 HT9      -0.725500
     38 O2         113.3390   108.4290   113.4220 o          1 HT9      -0.725500
     39 O3         111.4060   118.3260   118.4740 o          1 HT9      -0.747000
     40 O4         109.5520   119.5570   118.3460 o          1 HT9      -0.747000
     41 O5         110.4810   119.8990   110.1420 o          1 HT9      -0.754000
     42 O6         108.8550   119.5910   111.6360 o          1 HT9      -0.754000
     43 O7         113.1250   110.3350   118.9990 o          1 HT9      -0.750500
     44 O8         111.7890   109.8180   120.7090 o          1 HT9      -0.750500
     45 H1         109.8590   108.8950   115.9710 ha         1 HT9       0.224000
     46 H2         108.4540   117.0220   113.2320 ha         1 HT9       0.207000
     47 H3         109.4200   111.5700   110.1770 ha         1 HT9       0.162000
     48 H4         109.2580   106.9310   113.0450 hc         1 HT9       0.017200
     49 H5         109.8070   107.3140   114.6540 hc         1 HT9       0.017200
     50 H6         111.4600   105.9710   113.4200 hc         1 HT9       0.002700
     51 H7         111.5650   107.1890   112.1590 hc         1 HT9       0.002700
     52 H8         108.4600   113.3360   108.6260 hc         1 HT9       0.016033
     53 H9         108.9890   115.0040   108.4360 hc         1 HT9       0.016033
     54 H10        110.1670   113.7270   108.7140 hc         1 HT9       0.016033
     55 H11        109.9570   116.4470   119.2800 hc         1 HT9       0.015200
     56 H12        109.0880   117.6290   120.2370 hc         1 HT9       0.015200
     57 H13        108.4400   116.8360   109.5870 hc         1 HT9       0.033700
     58 H14        107.8910   117.3390   111.1640 hc         1 HT9       0.033700
     59 H15        110.4380   117.4000   111.8060 hc         1 HT9       0.030200
     60 H16        110.7260   117.3950   110.0790 hc         1 HT9       0.030200
     61 H17        109.4510   109.1330   119.6520 hc         1 HT9       0.015700
     62 H18        109.2580   108.4180   118.0740 hc         1 HT9       0.015700
     63 H19        111.4200   107.8090   118.9410 hc         1 HT9       0.045700
     64 H20        111.6810   108.8770   117.5750 hc         1 HT9       0.045700
     65 H21        108.0590   111.9200   120.5110 hc         1 HT9       0.041700
     66 H22        109.6130   111.1160   120.7550 hc         1 HT9       0.041700
     67 H23        109.5470   112.8510   120.5030 hc         1 HT9       0.041700
     68 H24        107.5110   117.9970   118.3120 hc         1 HT9       0.015700
     69 H25        107.4190   116.4190   119.0520 hc         1 HT9       0.015700
     70 H26        110.7890   108.7410   110.3670 hc         1 HT9       0.022367
     71 H27        109.4020   107.7680   110.8290 hc         1 HT9       0.022367
     72 H28        109.1660   109.2810   109.9620 hc         1 HT9       0.022367
     73 H29        108.0040   119.0180   116.3130 hc         1 HT9       0.050033
     74 H30        108.7110   118.7130   114.7350 hc         1 HT9       0.050033
     75 H31        107.0000   118.4290   114.9840 hc         1 HT9       0.050033
     76 H32        108.6140   114.3870   118.9800 ha         1 HT9       0.186000
     77 H34        109.3180   112.1420   113.8230 hn         1 HT9       0.408000
     78 H33        109.1210   112.7580   115.7090 hn         1 HT9       0.565000
     79 C21        109.9930   107.5220   113.6000 c3         1 HT9       0.013900
     80 C30        109.8120   109.1840   118.6240 c3         1 HT9       0.003800
     81 C33        109.1060   111.9010   120.2010 c3         1 HT9      -0.031900
     82 C24        109.1710   114.0820   108.9870 c3         1 HT9      -0.003900
@<TRIPOS>BOND
     1     1    12 2   
     2     1    24 1   
     3     1    27 1   
     4     2     3 1   
     5     2     5 2   
     6     2    25 1   
     7     3     4 2   
     8     3    79 1   
     9     4     6 1   
    10     4    35 1   
    11     5    13 1   
    12     5    35 1   
    13     6    31 2   
    14     6    45 1   
    15     7     8 2   
    16     7    10 1   
    17     7    18 1   
    18     8     9 1   
    19     8    82 1   
    20     9    13 2   
    21     9    36 1   
    22    10    11 1   
    23    10    36 2   
    24    11    21 2   
    25    11    46 1   
    26    12    21 1   
    27    12    26 1   
    28    13    47 1   
    29    14    15 1   
    30    14    50 1   
    31    14    51 1   
    32    14    79 1   
    33    15    37 1   
    34    15    38 1   
    35    16    17 1   
    36    16    24 1   
    37    16    55 1   
    38    16    56 1   
    39    17    39 1   
    40    17    40 1   
    41    18    19 1   
    42    18    57 1   
    43    18    58 1   
    44    19    20 1   
    45    19    59 1   
    46    19    60 1   
    47    20    41 1   
    48    20    42 1   
    49    21    33 1   
    50    22    23 1   
    51    22    63 1   
    52    22    64 1   
    53    22    80 1   
    54    23    43 1   
    55    23    44 1   
    56    24    68 1   
    57    24    69 1   
    58    25    70 1   
    59    25    71 1   
    60    25    72 1   
    61    26    73 1   
    62    26    74 1   
    63    26    75 1   
    64    27    32 1   
    65    27    33 2   
    66    28    29 2   
    67    28    31 1   
    68    28    80 1   
    69    29    30 1   
    70    29    81 1   
    71    30    32 2   
    72    30    34 1   
    73    31    34 1   
    74    32    76 1   
    75    34    78 1   
    76    35    77 1   
    77    48    79 1   
    78    49    79 1   
    79    52    82 1   
    80    53    82 1   
    81    54    82 1   
    82    61    80 1   
    83    62    80 1   
    84    65    81 1   
    85    66    81 1   
    86    67    81 1   
@<TRIPOS>SUBSTRUCTURE
     1 HT9         1 TEMP              0 ****  ****    0 ROOT
