@<TRIPOS>MOLECULE
HTA
   56    56     1     0     0
SMALL
No Charge or Current Charge


@<TRIPOS>ATOM
      1 C1          -2.9350     0.8590     1.0640 c          1 HTA       0.606100
      2 C2          -1.7940    -0.0170     0.5300 c3         1 HTA      -0.165400
      3 C3          -0.4520     0.1740     1.3040 c3         1 HTA      -0.127700
      4 C4           0.6940    -0.4540     0.4840 c          1 HTA       0.601100
      5 C5          -0.5340    -0.3650     2.7670 c3         1 HTA      -0.066400
      6 C6           0.6280     0.0320     3.7290 c3         1 HTA      -0.059700
      7 C7           0.2220    -0.2220     5.2000 c3         1 HTA      -0.088100
      8 C8           1.9700    -0.6770     3.4250 c3         1 HTA      -0.088100
      9 C9           2.6340     0.1060    -1.0500 c3         1 HTA       0.021700
     10 C10          4.0770     0.5010    -0.6110 c          1 HTA       0.589100
     11 C11          2.2550     0.7240    -2.4200 c3         1 HTA      -0.035100
     12 C12          0.7980     0.4760    -2.8090 ca         1 HTA      -0.129300
     13 C13         -0.1020     1.5530    -2.9220 ca         1 HTA      -0.072000
     14 C14          0.3370    -0.8350    -3.0360 ca         1 HTA      -0.072000
     15 C15         -1.4480     1.3190    -3.2520 ca         1 HTA      -0.171500
     16 C16         -1.0100    -1.0690    -3.3640 ca         1 HTA      -0.171500
     17 C17         -1.9100     0.0130    -3.4710 ca         1 HTA       0.135100
     18 C18          5.4690     1.5100     1.2290 c3         1 HTA       0.095300
     19 C19         -3.8210    -1.4540    -4.0060 c3         1 HTA       0.148900
     20 N1          -3.9640     0.1690     1.6950 ns         1 HTA      -0.389400
     21 N2           1.6050     0.4470    -0.0310 ns         1 HTA      -0.512900
     22 O1          -5.2220     0.8210     2.0000 oh         1 HTA      -0.421100
     23 O2          -2.9430     2.0750     0.9260 o          1 HTA      -0.575100
     24 O3           0.7860    -1.6580     0.2920 o          1 HTA      -0.587100
     25 O4           5.0510     0.3330    -1.3320 o          1 HTA      -0.608100
     26 O5          -3.2440    -0.1560    -3.7810 os         1 HTA      -0.336100
     27 H21         -1.6280     0.2720    -0.5140 hc         1 HTA       0.076200
     28 H22         -2.0790    -1.0750     0.5630 hc         1 HTA       0.076200
     29 H3          -0.2660     1.2540     1.3580 hc         1 HTA       0.077700
     30 H51         -1.4650     0.0100     3.2100 hc         1 HTA       0.052700
     31 H52         -0.6320    -1.4580     2.7500 hc         1 HTA       0.052700
     32 H6           0.7930     1.1120     3.6280 hc         1 HTA       0.046700
     33 H71          1.0140     0.1030     5.8850 hc         1 HTA       0.033867
     34 H72         -0.6880     0.3330     5.4560 hc         1 HTA       0.033867
     35 H73          0.0340    -1.2890     5.3750 hc         1 HTA       0.033867
     36 H81          1.8370    -1.7650     3.3800 hc         1 HTA       0.033867
     37 H82          2.4010    -0.3400     2.4790 hc         1 HTA       0.033867
     38 H83          2.7080    -0.4580     4.2060 hc         1 HTA       0.033867
     39 H9           2.6610    -0.9850    -1.1660 h1         1 HTA       0.104700
     40 H111         2.4590     1.8020    -2.3870 hc         1 HTA       0.067700
     41 H112         2.9190     0.3170    -3.1930 hc         1 HTA       0.067700
     42 H13          0.2360     2.5730    -2.7460 ha         1 HTA       0.115500
     43 H14          1.0210    -1.6760    -2.9500 ha         1 HTA       0.115500
     44 H15         -2.1380     2.1550    -3.3330 ha         1 HTA       0.128000
     45 H16         -1.3350    -2.0930    -3.5260 ha         1 HTA       0.128000
     46 H181         5.2850     1.9170     2.2320 h1         1 HTA       0.040700
     47 H182         6.1560     0.6580     1.3050 h1         1 HTA       0.040700
     48 H183         5.9190     2.2880     0.6000 h1         1 HTA       0.040700
     49 H191        -4.8900    -1.3610    -4.2340 h1         1 HTA       0.040700
     50 H192        -3.3360    -1.9560    -4.8530 h1         1 HTA       0.040700
     51 H193        -3.7180    -2.0870    -3.1150 h1         1 HTA       0.040700
     52 HN1         -3.9850    -0.8480     1.6480 hn         1 HTA       0.335500
     53 HN2          1.4050     1.4270     0.1360 hn         1 HTA       0.314500
     54 HN3          3.3530     1.1600     1.1840 hn         1 HTA       0.323500
     55 HO1         -5.3770     0.5940     2.9480 ho         1 HTA       0.444000
     56 N3           4.2030     1.0700     0.6400 ns         1 HTA      -0.495900
@<TRIPOS>BOND
     1     1     2 1   
     2     1    20 1   
     3     1    23 2   
     4     2     3 1   
     5     2    27 1   
     6     2    28 1   
     7     3     4 1   
     8     3     5 1   
     9     3    29 1   
    10     4    21 1   
    11     4    24 2   
    12     5     6 1   
    13     5    30 1   
    14     5    31 1   
    15     6     7 1   
    16     6     8 1   
    17     6    32 1   
    18     7    33 1   
    19     7    34 1   
    20     7    35 1   
    21     8    36 1   
    22     8    37 1   
    23     8    38 1   
    24     9    10 1   
    25     9    11 1   
    26     9    21 1   
    27     9    39 1   
    28    10    25 2   
    29    10    56 1   
    30    11    12 1   
    31    11    40 1   
    32    11    41 1   
    33    12    13 ar  
    34    12    14 ar  
    35    13    15 ar  
    36    13    42 1   
    37    14    16 ar  
    38    14    43 1   
    39    15    17 ar  
    40    15    44 1   
    41    16    17 ar  
    42    16    45 1   
    43    17    26 1   
    44    18    46 1   
    45    18    47 1   
    46    18    48 1   
    47    18    56 1   
    48    19    26 1   
    49    19    49 1   
    50    19    50 1   
    51    19    51 1   
    52    20    22 1   
    53    20    52 1   
    54    21    53 1   
    55    22    55 1   
    56    54    56 1   
@<TRIPOS>SUBSTRUCTURE
     1 HTA         1 TEMP              0 ****  ****    0 ROOT
