@<TRIPOS>MOLECULE
HTA
   56    56     1     0     0
SMALL
abcg2


@<TRIPOS>ATOM
      1 C1          -2.7120     0.5040     0.8520 c          1 HTA       0.606100
      2 C2          -1.4800    -0.3190     0.5500 c3         1 HTA      -0.165400
      3 C3          -0.2850     0.0920     1.4250 c3         1 HTA      -0.127700
      4 C4           0.9380    -0.4890     0.7380 c          1 HTA       0.601100
      5 C5          -0.4660    -0.3950     2.8620 c3         1 HTA      -0.066400
      6 C6           0.3760     0.3270     3.9150 c3         1 HTA      -0.059700
      7 C7          -0.0180    -0.1600     5.3060 c3         1 HTA      -0.088100
      8 C8           1.8760     0.1610     3.7010 c3         1 HTA      -0.088100
      9 C9           2.5440    -0.0120    -1.0620 c3         1 HTA       0.021700
     10 C10          4.0200     0.2090    -0.7460 c          1 HTA       0.589100
     11 C11          2.1770     0.6920    -2.3810 c3         1 HTA      -0.035100
     12 C12          0.7210     0.5240    -2.7120 ca         1 HTA      -0.129300
     13 C13         -0.1720     1.5890    -2.6040 ca         1 HTA      -0.072000
     14 C14          0.2060    -0.7130    -3.0830 ca         1 HTA      -0.072000
     15 C15         -1.5240     1.4290    -2.8530 ca         1 HTA      -0.171500
     16 C16         -1.1480    -0.8960    -3.3340 ca         1 HTA      -0.171500
     17 C17         -2.0260     0.1800    -3.2170 ca         1 HTA       0.135100
     18 C18          5.6580     1.0910     0.8260 c3         1 HTA       0.095300
     19 C19         -3.9200    -1.1520    -3.7340 c3         1 HTA       0.148900
     20 N1          -3.8330    -0.2330     0.9570 ns         1 HTA      -0.389400
     21 N2           1.6380     0.3940    -0.0150 ns         1 HTA      -0.512900
     22 O1          -5.0490     0.3760     1.0060 oh         1 HTA      -0.421100
     23 O2          -2.6890     1.7150     0.9820 o          1 HTA      -0.575100
     24 O3           1.2200    -1.6730     0.7980 o          1 HTA      -0.587100
     25 O4           4.8760    -0.1460    -1.5470 o          1 HTA      -0.608100
     26 O5          -3.3540     0.1060    -3.4320 os         1 HTA      -0.336100
     27 H21         -1.2560    -0.1530    -0.5090 hc         1 HTA       0.076200
     28 H22         -1.6690    -1.3890     0.6650 hc         1 HTA       0.076200
     29 H3          -0.2230     1.1850     1.4190 hc         1 HTA       0.077700
     30 H51         -1.5190    -0.2690     3.1350 hc         1 HTA       0.052700
     31 H52         -0.2760    -1.4720     2.9070 hc         1 HTA       0.052700
     32 H6           0.1400     1.3960     3.8510 hc         1 HTA       0.046700
     33 H71          0.5250     0.3780     6.0850 hc         1 HTA       0.033867
     34 H72         -1.0850    -0.0210     5.4890 hc         1 HTA       0.033867
     35 H73          0.2030    -1.2240     5.4230 hc         1 HTA       0.033867
     36 H81          2.1600    -0.8940     3.6890 hc         1 HTA       0.033867
     37 H82          2.2100     0.6070     2.7630 hc         1 HTA       0.033867
     38 H83          2.4390     0.6480     4.4990 hc         1 HTA       0.033867
     39 H9           2.4250    -1.0890    -1.2000 h1         1 HTA       0.104700
     40 H111         2.4180     1.7560    -2.3020 hc         1 HTA       0.067700
     41 H112         2.8060     0.2830    -3.1730 hc         1 HTA       0.067700
     42 H13          0.1930     2.5670    -2.3140 ha         1 HTA       0.115500
     43 H14          0.8700    -1.5650    -3.1770 ha         1 HTA       0.115500
     44 H15         -2.2010     2.2690    -2.7580 ha         1 HTA       0.128000
     45 H16         -1.4960    -1.8800    -3.6190 ha         1 HTA       0.128000
     46 H181         5.6310     1.5220     1.8220 h1         1 HTA       0.040700
     47 H182         6.2660     0.1880     0.8580 h1         1 HTA       0.040700
     48 H183         6.1380     1.8040     0.1550 h1         1 HTA       0.040700
     49 H191        -4.9910    -0.9950    -3.8330 h1         1 HTA       0.040700
     50 H192        -3.5370    -1.5610    -4.6730 h1         1 HTA       0.040700
     51 H193        -3.7440    -1.8810    -2.9380 h1         1 HTA       0.040700
     52 HN1         -3.8580    -1.2180     0.7360 hn         1 HTA       0.335500
     53 HN2          1.3090     1.3470    -0.0370 hn         1 HTA       0.314500
     54 HN3          3.5450     1.0890     1.0080 hn         1 HTA       0.323500
     55 HO1         -5.2870     0.4270     1.9410 ho         1 HTA       0.444000
     56 N3           4.3050     0.8000     0.4150 ns         1 HTA      -0.495900
@<TRIPOS>BOND
     1     1     2 1   
     2     1    20 1   
     3     1    23 2   
     4     2     3 1   
     5     2    27 1   
     6     2    28 1   
     7     3     4 1   
     8     3     5 1   
     9     3    29 1   
    10     4    21 1   
    11     4    24 2   
    12     5     6 1   
    13     5    30 1   
    14     5    31 1   
    15     6     7 1   
    16     6     8 1   
    17     6    32 1   
    18     7    33 1   
    19     7    34 1   
    20     7    35 1   
    21     8    36 1   
    22     8    37 1   
    23     8    38 1   
    24     9    10 1   
    25     9    11 1   
    26     9    21 1   
    27     9    39 1   
    28    10    25 2   
    29    10    56 1   
    30    11    12 1   
    31    11    40 1   
    32    11    41 1   
    33    12    13 ar  
    34    12    14 ar  
    35    13    15 ar  
    36    13    42 1   
    37    14    16 ar  
    38    14    43 1   
    39    15    17 ar  
    40    15    44 1   
    41    16    17 ar  
    42    16    45 1   
    43    17    26 1   
    44    18    46 1   
    45    18    47 1   
    46    18    48 1   
    47    18    56 1   
    48    19    26 1   
    49    19    49 1   
    50    19    50 1   
    51    19    51 1   
    52    20    22 1   
    53    20    52 1   
    54    21    53 1   
    55    22    55 1   
    56    54    56 1   
@<TRIPOS>SUBSTRUCTURE
     1 HTA         1 TEMP              0 ****  ****    0 ROOT
