@<TRIPOS>MOLECULE
HTB
   68    72     1     0     0
SMALL
abcg2


@<TRIPOS>ATOM
      1 CAS          8.0200     2.5530    -0.2810 c6         1 HTB      -0.132700
      2 CAO          6.9190     3.5860    -0.4580 c6         1 HTB      -0.074400
      3 CAP          5.8210     3.3510     0.5650 c6         1 HTB      -0.075400
      4 CAT          5.1660     2.0010     0.3070 c6         1 HTB      -0.019100
      5 CBB          6.1610     0.8750     0.1980 ca         1 HTB      -0.154300
      6 CBA          7.5270     1.1430    -0.0650 ca         1 HTB       0.397300
      7 NAV          8.4610     0.2200    -0.0840 nb         1 HTB      -0.696000
      8 CBE          8.1170    -1.0610     0.1520 ca         1 HTB       0.294000
      9 CAF          9.1380    -2.0420     0.1350 ca         1 HTB      -0.086000
     10 CAB          8.8430    -3.3620     0.3380 ca         1 HTB      -0.102000
     11 CAD          7.5110    -3.7640     0.5550 ca         1 HTB      -0.114000
     12 CAH          6.5060    -2.8340     0.5840 ca         1 HTB      -0.096000
     13 CBG          6.7820    -1.4590     0.4010 ca         1 HTB      -0.121000
     14 CBC          5.7810    -0.4400     0.4310 ca         1 HTB       0.318000
     15 NAX          4.4680    -0.7520     0.7420 nu         1 HTB      -0.940200
     16 CAR          3.4060    -0.5730    -0.2430 c3         1 HTB       0.196800
     17 CAN          2.0580    -0.3850     0.4330 c3         1 HTB      -0.083400
     18 CAL          0.9100    -0.3300    -0.5670 c3         1 HTB      -0.074400
     19 CAJ         -0.4480    -0.1450     0.0970 c3         1 HTB      -0.073400
     20 CAK         -1.5990    -0.1230    -0.9010 c3         1 HTB      -0.074400
     21 CAM         -2.9600     0.0600    -0.2420 c3         1 HTB      -0.078400
     22 CAQ         -4.0960     0.0660    -1.2520 c3         1 HTB       0.157800
     23 NAW         -5.3830     0.2500    -0.6050 n7         1 HTB      -0.848400
     24 CAU         -6.4760     0.2750    -1.5590 c3         1 HTB       0.224000
     25 CAZ         -7.7880     0.4280    -0.8840 cc         1 HTB       0.024900
     26 OAY         -8.1490    -0.5420     0.0040 os         1 HTB      -0.153200
     27 CBF         -9.3670    -0.2060     0.4840 ca         1 HTB       0.060100
     28 CAG        -10.1070    -0.9170     1.4130 ca         1 HTB      -0.104000
     29 CAC        -11.3380    -0.3820     1.7590 ca         1 HTB      -0.093000
     30 CAA        -11.7990     0.8140     1.1950 ca         1 HTB      -0.132000
     31 CAE        -11.0420     1.5110     0.2680 ca         1 HTB      -0.061000
     32 CBD         -9.7990     0.9900    -0.0950 ca         1 HTB      -0.113800
     33 CAI         -8.7410     1.3810    -0.9840 cd         1 HTB      -0.234200
     34 H1           8.7030     2.5540    -1.1330 hc         1 HTB       0.062200
     35 H2           8.6280     2.8210     0.5890 hc         1 HTB       0.062200
     36 H3           7.3400     4.5880    -0.3640 hc         1 HTB       0.043200
     37 H4           6.4940     3.5190    -1.4650 hc         1 HTB       0.043200
     38 H5           6.2430     3.3790     1.5750 hc         1 HTB       0.044200
     39 H6           5.0640     4.1360     0.5160 hc         1 HTB       0.044200
     40 H7           4.4430     1.7640     1.0930 hc         1 HTB       0.050700
     41 H8           4.5830     2.0800    -0.6170 hc         1 HTB       0.050700
     42 H9          10.1550    -1.7170    -0.0460 ha         1 HTB       0.130000
     43 H10          9.6310    -4.1030     0.3220 ha         1 HTB       0.115000
     44 H11          7.2800    -4.8120     0.6920 ha         1 HTB       0.113000
     45 H12          5.4900    -3.1770     0.7340 ha         1 HTB       0.103000
     46 H13          4.3750    -1.6470     1.1990 hn         1 HTB       0.447000
     47 H14          3.6290     0.2920    -0.8670 h1         1 HTB       0.038700
     48 H15          3.3660    -1.4340    -0.9220 h1         1 HTB       0.038700
     49 H16          1.8870    -1.2080     1.1350 hc         1 HTB       0.047700
     50 H17          2.0810     0.5320     1.0310 hc         1 HTB       0.047700
     51 H18          1.0800     0.4870    -1.2770 hc         1 HTB       0.038200
     52 H19          0.9020    -1.2510    -1.1600 hc         1 HTB       0.038200
     53 H20         -0.6100    -0.9530     0.8190 hc         1 HTB       0.041200
     54 H21         -0.4490     0.7850     0.6750 hc         1 HTB       0.041200
     55 H22         -1.4350     0.6820    -1.6260 hc         1 HTB       0.037200
     56 H23         -1.5960    -1.0550    -1.4770 hc         1 HTB       0.037200
     57 H24         -3.1300    -0.7390     0.4860 hc         1 HTB       0.048200
     58 H25         -2.9680     1.0010     0.3200 hc         1 HTB       0.048200
     59 H26         -3.8990     0.8340    -2.0180 h1         1 HTB       0.028700
     60 H27         -4.1140    -0.8920    -1.7810 h1         1 HTB       0.028700
     61 H28         -6.3910     1.0760    -2.3060 h1         1 HTB       0.049200
     62 H29         -9.7470    -1.8410     1.8450 ha         1 HTB       0.131000
     63 H30        -11.9560    -0.9010     2.4800 ha         1 HTB       0.115000
     64 H31        -12.7670     1.1980     1.4910 ha         1 HTB       0.114000
     65 H32        -11.4040     2.4340    -0.1650 ha         1 HTB       0.118000
     66 H33         -8.6980     2.2540    -1.6140 ha         1 HTB       0.210000
     67 H34         -5.3720     1.1310    -0.1020 hn         1 HTB       0.411000
     68 H35         -6.4640    -0.6670    -2.1180 h1         1 HTB       0.049200
@<TRIPOS>BOND
     1     1     2 1   
     2     1     6 1   
     3     1    34 1   
     4     1    35 1   
     5     2     3 1   
     6     2    36 1   
     7     2    37 1   
     8     3     4 1   
     9     3    38 1   
    10     3    39 1   
    11     4     5 1   
    12     4    40 1   
    13     4    41 1   
    14     5     6 ar  
    15     5    14 ar  
    16     6     7 ar  
    17     7     8 ar  
    18     8     9 ar  
    19     8    13 ar  
    20     9    10 ar  
    21     9    42 1   
    22    10    11 ar  
    23    10    43 1   
    24    11    12 ar  
    25    11    44 1   
    26    12    13 ar  
    27    12    45 1   
    28    13    14 ar  
    29    14    15 1   
    30    15    16 1   
    31    15    46 1   
    32    16    17 1   
    33    16    47 1   
    34    16    48 1   
    35    17    18 1   
    36    17    49 1   
    37    17    50 1   
    38    18    19 1   
    39    18    51 1   
    40    18    52 1   
    41    19    20 1   
    42    19    53 1   
    43    19    54 1   
    44    20    21 1   
    45    20    55 1   
    46    20    56 1   
    47    21    22 1   
    48    21    57 1   
    49    21    58 1   
    50    22    23 1   
    51    22    59 1   
    52    22    60 1   
    53    23    24 1   
    54    23    67 1   
    55    24    25 1   
    56    24    61 1   
    57    24    68 1   
    58    25    26 1   
    59    25    33 2   
    60    26    27 1   
    61    27    28 ar  
    62    27    32 ar  
    63    28    29 ar  
    64    28    62 1   
    65    29    30 ar  
    66    29    63 1   
    67    30    31 ar  
    68    30    64 1   
    69    31    32 ar  
    70    31    65 1   
    71    32    33 1   
    72    33    66 1   
@<TRIPOS>SUBSTRUCTURE
     1 HTB         1 TEMP              0 ****  ****    0 ROOT
