@<TRIPOS>MOLECULE
HTB
   68    72     1     0     0
SMALL
No Charge or Current Charge


@<TRIPOS>ATOM
      1 CAS          8.7520     2.1710    -0.5280 c6         1 HTB      -0.132700
      2 CAO          7.9170     3.3960    -0.9640 c6         1 HTB      -0.074400
      3 CAP          6.7520     3.6220     0.0170 c6         1 HTB      -0.075400
      4 CAT          5.7980     2.4070     0.0110 c6         1 HTB      -0.019100
      5 CBB          6.5230     1.0500     0.1320 ca         1 HTB      -0.154300
      6 CBA          7.9050     0.9560    -0.1340 ca         1 HTB       0.397300
      7 NAV          8.6030    -0.1920    -0.0270 nb         1 HTB      -0.696000
      8 CBE          7.9630    -1.3180     0.3450 ca         1 HTB       0.294000
      9 CAF          8.7000    -2.5130     0.4560 ca         1 HTB      -0.086000
     10 CAB          8.0820    -3.7150     0.8360 ca         1 HTB      -0.102000
     11 CAD          6.7080    -3.7330     1.1110 ca         1 HTB      -0.114000
     12 CAH          5.9560    -2.5530     1.0070 ca         1 HTB      -0.096000
     13 CBG          6.5750    -1.3350     0.6290 ca         1 HTB      -0.121000
     14 CBC          5.8450    -0.1280     0.5120 ca         1 HTB       0.318000
     15 NAX          4.4710    -0.1060     0.7960 nu         1 HTB      -0.940200
     16 CAR          3.4230     0.0270    -0.2260 c3         1 HTB       0.196800
     17 CAN          2.0280    -0.0440     0.4240 c3         1 HTB      -0.083400
     18 CAL          0.8810     0.0920    -0.6020 c3         1 HTB      -0.074400
     19 CAJ         -0.5200     0.0230     0.0430 c3         1 HTB      -0.073400
     20 CAK         -1.6660     0.1590    -0.9840 c3         1 HTB      -0.074400
     21 CAM         -3.0680     0.0890    -0.3400 c3         1 HTB      -0.078400
     22 CAQ         -4.2080     0.2240    -1.3690 c3         1 HTB       0.157800
     23 NAW         -5.5140     0.1430    -0.6950 n7         1 HTB      -0.848400
     24 CAU         -6.6890     0.2480    -1.5880 c3         1 HTB       0.224000
     25 CAZ         -7.9740     0.1980    -0.7970 cc         1 HTB       0.024900
     26 OAY         -8.7250    -0.9810    -0.7880 os         1 HTB      -0.153200
     27 CBF         -9.8170    -0.6890     0.0060 ca         1 HTB       0.060100
     28 CAG        -10.8660    -1.5630     0.3200 ca         1 HTB      -0.104000
     29 CAC        -11.9040    -1.0840     1.1520 ca         1 HTB      -0.093000
     30 CAA        -11.8720     0.2440     1.6480 ca         1 HTB      -0.132000
     31 CAE        -10.8040     1.1060     1.3170 ca         1 HTB      -0.061000
     32 CBD         -9.7980     0.5920     0.4920 ca         1 HTB      -0.113800
     33 CAI         -8.6010     1.1640    -0.0320 cd         1 HTB      -0.234200
     34 H1           9.4450     1.8990    -1.3350 hc         1 HTB       0.062200
     35 H2           9.3770     2.4500     0.3310 hc         1 HTB       0.062200
     36 H3           8.5550     4.2890    -1.0100 hc         1 HTB       0.043200
     37 H4           7.5220     3.2370    -1.9770 hc         1 HTB       0.043200
     38 H5           7.1440     3.7830     1.0310 hc         1 HTB       0.044200
     39 H6           6.1990     4.5310    -0.2540 hc         1 HTB       0.044200
     40 H7           5.0670     2.5270     0.8230 hc         1 HTB       0.050700
     41 H8           5.2250     2.4200    -0.9250 hc         1 HTB       0.050700
     42 H9           9.7650    -2.5040     0.2410 ha         1 HTB       0.130000
     43 H10          8.6680    -4.6280     0.9150 ha         1 HTB       0.115000
     44 H11          6.2240    -4.6640     1.4020 ha         1 HTB       0.113000
     45 H12          4.8910    -2.6040     1.2190 ha         1 HTB       0.103000
     46 H13          4.2220    -0.7510     1.5450 hn         1 HTB       0.447000
     47 H14          3.5210     0.9800    -0.7600 h1         1 HTB       0.038700
     48 H15          3.5200    -0.7830    -0.9630 h1         1 HTB       0.038700
     49 H16          1.9240    -0.9980     0.9550 hc         1 HTB       0.047700
     50 H17          1.9390     0.7550     1.1710 hc         1 HTB       0.047700
     51 H18          0.9860     1.0460    -1.1350 hc         1 HTB       0.038200
     52 H19          0.9730    -0.7050    -1.3520 hc         1 HTB       0.038200
     53 H20         -0.6250    -0.9310     0.5750 hc         1 HTB       0.041200
     54 H21         -0.6110     0.8190     0.7930 hc         1 HTB       0.041200
     55 H22         -1.5610     1.1130    -1.5160 hc         1 HTB       0.037200
     56 H23         -1.5740    -0.6370    -1.7330 hc         1 HTB       0.037200
     57 H24         -3.1730    -0.8660     0.1900 hc         1 HTB       0.048200
     58 H25         -3.1600     0.8850     0.4090 hc         1 HTB       0.048200
     59 H26         -4.1060     1.1850    -1.8930 h1         1 HTB       0.028700
     60 H27         -4.1140    -0.5770    -2.1150 h1         1 HTB       0.028700
     61 H28         -6.6640     1.1920    -2.1500 h1         1 HTB       0.049200
     62 H29        -10.8800    -2.5790    -0.0670 ha         1 HTB       0.131000
     63 H30        -12.7320    -1.7390     1.4130 ha         1 HTB       0.115000
     64 H31        -12.6760     0.6010     2.2870 ha         1 HTB       0.114000
     65 H32        -10.7650     2.1270     1.6890 ha         1 HTB       0.118000
     66 H33         -8.2390     2.1760     0.1310 ha         1 HTB       0.210000
     67 H34         -5.5730     0.9070    -0.0120 hn         1 HTB       0.411000
     68 H35         -6.6910    -0.5700    -2.3210 h1         1 HTB       0.049200
@<TRIPOS>BOND
     1     1     2 1   
     2     1     6 1   
     3     1    34 1   
     4     1    35 1   
     5     2     3 1   
     6     2    36 1   
     7     2    37 1   
     8     3     4 1   
     9     3    38 1   
    10     3    39 1   
    11     4     5 1   
    12     4    40 1   
    13     4    41 1   
    14     5     6 ar  
    15     5    14 ar  
    16     6     7 ar  
    17     7     8 ar  
    18     8     9 ar  
    19     8    13 ar  
    20     9    10 ar  
    21     9    42 1   
    22    10    11 ar  
    23    10    43 1   
    24    11    12 ar  
    25    11    44 1   
    26    12    13 ar  
    27    12    45 1   
    28    13    14 ar  
    29    14    15 1   
    30    15    16 1   
    31    15    46 1   
    32    16    17 1   
    33    16    47 1   
    34    16    48 1   
    35    17    18 1   
    36    17    49 1   
    37    17    50 1   
    38    18    19 1   
    39    18    51 1   
    40    18    52 1   
    41    19    20 1   
    42    19    53 1   
    43    19    54 1   
    44    20    21 1   
    45    20    55 1   
    46    20    56 1   
    47    21    22 1   
    48    21    57 1   
    49    21    58 1   
    50    22    23 1   
    51    22    59 1   
    52    22    60 1   
    53    23    24 1   
    54    23    67 1   
    55    24    25 1   
    56    24    61 1   
    57    24    68 1   
    58    25    26 1   
    59    25    33 2   
    60    26    27 1   
    61    27    28 ar  
    62    27    32 ar  
    63    28    29 ar  
    64    28    62 1   
    65    29    30 ar  
    66    29    63 1   
    67    30    31 ar  
    68    30    64 1   
    69    31    32 ar  
    70    31    65 1   
    71    32    33 1   
    72    33    66 1   
@<TRIPOS>SUBSTRUCTURE
     1 HTB         1 TEMP              0 ****  ****    0 ROOT
