@<TRIPOS>MOLECULE
HTC
   29    30     1     0     0
SMALL
bcc


@<TRIPOS>ATOM
      1 N1          -2.1650     4.0370    74.7360 nu         1 HTC      -0.649500
      2 S13         -3.2650     5.2460    74.4770 sy         1 HTC       1.304200
      3 O17         -3.1500     6.2190    75.5500 o          1 HTC      -0.646300
      4 O16         -4.5430     4.6000    74.2400 o          1 HTC      -0.646300
      5 C15         -2.7640     6.0670    72.9920 cc         1 HTC      -0.328500
      6 C19         -2.6030     7.4780    72.9610 cc         1 HTC      -0.068000
      7 C22         -2.2710     7.9170    71.7160 cd         1 HTC      -0.199100
      8 S20         -2.1600     6.6320    70.5970 ss         1 HTC      -0.063800
      9 C18         -2.5500     5.4580    71.7810 cd         1 HTC       0.003300
     10 C21         -2.5610     4.0180    71.3240 c          1 HTC       0.949200
     11 O24         -2.5210     3.8620    70.0980 o          1 HTC      -0.801300
     12 O23         -2.5870     3.1330    72.2060 o          1 HTC      -0.801300
     13 C2          -0.8700     4.4250    75.1660 ca         1 HTC       0.042600
     14 C4          -0.6130     4.5450    76.5350 ca         1 HTC       0.132100
     15 C6           0.6660     4.8880    76.9600 ca         1 HTC      -0.206000
     16 C7           1.7000     5.0950    76.0530 ca         1 HTC      -0.103600
     17 C5           1.4380     4.9590    74.6920 ca         1 HTC      -0.139000
     18 C3           0.1620     4.6370    74.2600 ca         1 HTC      -0.133000
     19 O1          -1.6190     4.3010    77.3920 oh         1 HTC      -0.485100
     20 C            3.0960     5.4540    76.5510 c          1 HTC       0.925200
     21 O            3.9860     5.5540    75.6860 o          1 HTC      -0.837800
     22 O25          3.2270     5.6120    77.7800 o          1 HTC      -0.837800
     23 HN1         -2.1800     3.4610    73.8730 hn         1 HTC       0.483800
     24 H19         -2.7260     8.1270    73.8140 ha         1 HTC       0.153000
     25 H22         -2.0840     8.9350    71.4110 h4         1 HTC       0.138000
     26 H6           0.8680     4.9860    78.0210 ha         1 HTC       0.138000
     27 H5           2.2300     5.1100    73.9720 ha         1 HTC       0.143000
     28 H3          -0.0410     4.5360    73.2000 ha         1 HTC       0.133000
     29 HO1         -1.3060     4.3990    78.2980 ho         1 HTC       0.401000
@<TRIPOS>BOND
     1     1     2 1   
     2     1    13 1   
     3     1    23 1   
     4     2     3 2   
     5     2     4 2   
     6     2     5 1   
     7     5     6 1   
     8     5     9 2   
     9     6     7 2   
    10     6    24 1   
    11     7     8 1   
    12     7    25 1   
    13     8     9 1   
    14     9    10 1   
    15    10    11 1   
    16    10    12 1   
    17    13    14 ar  
    18    13    18 ar  
    19    14    15 ar  
    20    14    19 1   
    21    15    16 ar  
    22    15    26 1   
    23    16    17 ar  
    24    16    20 1   
    25    17    18 ar  
    26    17    27 1   
    27    18    28 1   
    28    19    29 1   
    29    20    21 1   
    30    20    22 1   
@<TRIPOS>SUBSTRUCTURE
     1 HTC         1 TEMP              0 ****  ****    0 ROOT
