@<TRIPOS>MOLECULE
HTC
   29    30     1     0     0
SMALL
No Charge or Current Charge


@<TRIPOS>ATOM
      1 N1          -2.2350     4.0730    74.7550 nu         1 HTC      -0.843100
      2 S13         -3.4660     5.1640    74.4430 sy         1 HTC       1.162600
      3 O17         -3.5250     6.0630    75.6000 o          1 HTC      -0.575500
      4 O16         -4.5930     4.3160    74.0450 o          1 HTC      -0.575500
      5 C15         -2.8350     6.0570    73.0010 cc         1 HTC      -0.328500
      6 C19         -2.6530     7.4700    73.0070 cc         1 HTC      -0.050000
      7 C22         -2.1980     8.0120    71.8390 cd         1 HTC      -0.326000
      8 S20         -2.0100     6.7740    70.5990 ss         1 HTC       0.226000
      9 C18         -2.4740     5.5130    71.7590 cd         1 HTC      -0.141600
     10 C21         -2.3920     4.0720    71.3480 c          1 HTC       0.738600
     11 O24         -2.0980     3.8240    70.1880 o          1 HTC      -0.696000
     12 O23         -2.5480     3.1900    72.1770 o          1 HTC      -0.696000
     13 C2          -0.9490     4.4040    75.1970 ca         1 HTC       0.181000
     14 C4          -0.6420     4.6210    76.5700 ca         1 HTC       0.132100
     15 C6           0.6710     4.9510    76.9550 ca         1 HTC      -0.188000
     16 C7           1.7090     5.0650    75.9980 ca         1 HTC      -0.103600
     17 C5           1.3930     4.8300    74.6400 ca         1 HTC      -0.121000
     18 C3           0.0840     4.5000    74.2490 ca         1 HTC      -0.115000
     19 O1          -1.5920     4.4870    77.5510 oh         1 HTC      -0.524100
     20 C            3.1330     5.4230    76.4180 c          1 HTC       0.714600
     21 O            3.9990     5.4980    75.5560 o          1 HTC      -0.732500
     22 O25          3.3640     5.6240    77.6020 o          1 HTC      -0.732500
     23 HN1         -2.2540     3.6050    73.8460 hn         1 HTC       0.539000
     24 H19         -2.8660     8.0690    73.8900 ha         1 HTC       0.135000
     25 H22         -1.9880     9.0500    71.6150 h4         1 HTC       0.120000
     26 H6           0.8920     5.1130    78.0070 ha         1 HTC       0.120000
     27 H5           2.1660     4.9040    73.8780 ha         1 HTC       0.125000
     28 H3          -0.1230     4.3270    73.1960 ha         1 HTC       0.115000
     29 HO1         -1.1760     4.6900    78.4130 ho         1 HTC       0.440000
@<TRIPOS>BOND
     1     1     2 1   
     2     1    13 1   
     3     1    23 1   
     4     2     3 2   
     5     2     4 2   
     6     2     5 1   
     7     5     6 1   
     8     5     9 2   
     9     6     7 2   
    10     6    24 1   
    11     7     8 1   
    12     7    25 1   
    13     8     9 1   
    14     9    10 1   
    15    10    11 1   
    16    10    12 1   
    17    13    14 ar  
    18    13    18 ar  
    19    14    15 ar  
    20    14    19 1   
    21    15    16 ar  
    22    15    26 1   
    23    16    17 ar  
    24    16    20 1   
    25    17    18 ar  
    26    17    27 1   
    27    18    28 1   
    28    19    29 1   
    29    20    21 1   
    30    20    22 1   
@<TRIPOS>SUBSTRUCTURE
     1 HTC         1 TEMP              0 ****  ****    0 ROOT
