@<TRIPOS>MOLECULE
HTE
   38    40     1     0     0
SMALL
No Charge or Current Charge


@<TRIPOS>ATOM
      1 C2          -1.1770     1.4880    -0.4820 c6         1 HTE       0.172300
      2 C3          -2.6390     1.4990     0.0400 c6         1 HTE       0.129300
      3 C4          -3.3950     0.2480    -0.4770 c6         1 HTE       0.107300
      4 C5          -2.6410    -1.0480    -0.0330 c6         1 HTE       0.144300
      5 O5          -1.2360    -1.0010    -0.4190 os         1 HTE      -0.413000
      6 C1          -0.4490     0.1660    -0.0400 c5         1 HTE       0.282200
      7 N1           0.8840     0.0440    -0.7530 n2         1 HTE      -0.610900
      8 C11          1.7650     0.0630     0.1960 ce         1 HTE       0.550500
      9 N3           1.2200     0.1030     1.4500 ns         1 HTE      -0.456400
     10 C12         -0.1200     0.1380     1.5010 c          1 HTE       0.534000
     11 O4          -0.8110     0.0490     2.5080 o          1 HTE      -0.503000
     12 C13          3.2430    -0.0800    -0.0090 ca         1 HTE      -0.140900
     13 C6           4.1570     0.1310     1.0520 ca         1 HTE      -0.069500
     14 C7           5.5410     0.0070     0.8380 ca         1 HTE      -0.118500
     15 C8           6.0340    -0.3200    -0.4340 ca         1 HTE      -0.087000
     16 C9           5.1400    -0.5200    -1.4970 ca         1 HTE      -0.118500
     17 C10          3.7560    -0.3970    -1.2890 ca         1 HTE      -0.069500
     18 O2          -0.5070     2.6870    -0.0320 oh         1 HTE      -0.715000
     19 C14         -3.2640    -2.3540    -0.6280 c3         1 HTE       0.170600
     20 O1          -4.7570     0.2760     0.0020 oh         1 HTE      -0.719000
     21 O3          -3.3160     2.6970    -0.3860 oh         1 HTE      -0.668000
     22 O6          -2.5590    -3.5480    -0.2380 oh         1 HTE      -0.701000
     23 H1          -1.2180     1.4850    -1.5830 h1         1 HTE       0.071700
     24 H2          -2.6220     1.4560     1.1400 h1         1 HTE       0.076700
     25 H3          -3.3880     0.2810    -1.5780 h1         1 HTE       0.054700
     26 H4          -2.6990    -1.1260     1.0620 h1         1 HTE       0.086700
     27 H5           1.8030     0.0120     2.2680 hn         1 HTE       0.347500
     28 H6           3.8080     0.3980     2.0460 ha         1 HTE       0.126500
     29 H7           6.2330     0.1700     1.6620 ha         1 HTE       0.119000
     30 H8           7.1060    -0.4140    -0.5970 ha         1 HTE       0.116000
     31 H9           5.5200    -0.7690    -2.4860 ha         1 HTE       0.119000
     32 H10          3.0810    -0.5550    -2.1280 ha         1 HTE       0.126500
     33 H11         -1.1900     3.3970    -0.1240 ho         1 HTE       0.528000
     34 H12         -4.3100    -2.4190    -0.3000 h1         1 HTE       0.025700
     35 H13         -3.2700    -2.2620    -1.7230 h1         1 HTE       0.025700
     36 H14         -5.3130    -0.2350    -0.6340 ho         1 HTE       0.510000
     37 H15         -4.2750     2.4940    -0.2780 ho         1 HTE       0.464000
     38 H16         -2.9800    -4.3000    -0.7160 ho         1 HTE       0.503000
@<TRIPOS>BOND
     1     1     2 1   
     2     1     6 1   
     3     1    18 1   
     4     1    23 1   
     5     2     3 1   
     6     2    21 1   
     7     2    24 1   
     8     3     4 1   
     9     3    20 1   
    10     3    25 1   
    11     4     5 1   
    12     4    19 1   
    13     4    26 1   
    14     5     6 1   
    15     6     7 1   
    16     6    10 1   
    17     7     8 2   
    18     8     9 1   
    19     8    12 1   
    20     9    10 1   
    21     9    27 1   
    22    10    11 2   
    23    12    13 ar  
    24    12    17 ar  
    25    13    14 ar  
    26    13    28 1   
    27    14    15 ar  
    28    14    29 1   
    29    15    16 ar  
    30    15    30 1   
    31    16    17 ar  
    32    16    31 1   
    33    17    32 1   
    34    18    33 1   
    35    19    22 1   
    36    19    34 1   
    37    19    35 1   
    38    20    36 1   
    39    21    37 1   
    40    22    38 1   
@<TRIPOS>SUBSTRUCTURE
     1 HTE         1 TEMP              0 ****  ****    0 ROOT
