@<TRIPOS>MOLECULE
HTE
   38    40     1     0     0
SMALL
bcc


@<TRIPOS>ATOM
      1 C2          -1.1490     1.4260    -0.4020 c6         1 HTE       0.149100
      2 C3          -2.6210     1.4400    -0.0180 c6         1 HTE       0.106100
      3 C4          -3.3090     0.1950    -0.5600 c6         1 HTE       0.084100
      4 C5          -2.5870    -1.0540    -0.0470 c6         1 HTE       0.121100
      5 O5          -1.2100    -1.0050    -0.4010 os         1 HTE      -0.366600
      6 C1          -0.4730     0.1120    -0.0000 c5         1 HTE       0.259000
      7 N1           0.8160     0.0200    -0.6380 n2         1 HTE      -0.610900
      8 C11          1.7040    -0.0080     0.2760 ce         1 HTE       0.550500
      9 N3           1.2020     0.0320     1.5680 ns         1 HTE      -0.523400
     10 C12         -0.1570     0.0860     1.5170 c          1 HTE       0.676500
     11 O4          -0.9190     0.0910     2.4520 o          1 HTE      -0.578500
     12 C13          3.1440    -0.0870     0.0220 ca         1 HTE      -0.140900
     13 C6           4.0800     0.1320     1.0310 ca         1 HTE      -0.087500
     14 C7           5.4370     0.0570     0.7510 ca         1 HTE      -0.136500
     15 C8           5.8670    -0.2370    -0.5340 ca         1 HTE      -0.105000
     16 C9           4.9370    -0.4550    -1.5450 ca         1 HTE      -0.136500
     17 C10          3.5830    -0.3780    -1.2700 ca         1 HTE      -0.087500
     18 O2          -0.4190     2.4530     0.2130 oh         1 HTE      -0.592800
     19 C14         -3.1450    -2.3180    -0.6630 c3         1 HTE       0.147400
     20 O1          -4.6490     0.2280    -0.1220 oh         1 HTE      -0.596800
     21 O3          -3.1650     2.6200    -0.5580 oh         1 HTE      -0.605800
     22 O6          -2.5210    -3.4310    -0.0700 oh         1 HTE      -0.578800
     23 H1          -1.0850     1.4920    -1.5000 h1         1 HTE       0.071700
     24 H2          -2.7130     1.4390     1.0780 h1         1 HTE       0.076700
     25 H3          -3.2490     0.2130    -1.6580 h1         1 HTE       0.054700
     26 H4          -2.7110    -1.1120     1.0420 h1         1 HTE       0.086700
     27 H5           1.7320    -0.0760     2.4200 hn         1 HTE       0.347500
     28 H6           3.7740     0.3790     2.0390 ha         1 HTE       0.144500
     29 H7           6.1560     0.2320     1.5400 ha         1 HTE       0.137000
     30 H8           6.9260    -0.2970    -0.7500 ha         1 HTE       0.134000
     31 H9           5.2690    -0.6870    -2.5480 ha         1 HTE       0.137000
     32 H10          2.8580    -0.5480    -2.0540 ha         1 HTE       0.144500
     33 H11         -0.8250     3.2970    -0.0130 ho         1 HTE       0.429000
     34 H12         -4.2290    -2.3300    -0.4960 h1         1 HTE       0.025700
     35 H13         -2.9870    -2.2890    -1.7500 h1         1 HTE       0.025700
     36 H14         -5.2090    -0.1800    -0.7880 ho         1 HTE       0.411000
     37 H15         -4.0680     2.7120    -0.2370 ho         1 HTE       0.425000
     38 H16         -2.9290    -4.2250    -0.4260 ho         1 HTE       0.404000
@<TRIPOS>BOND
     1     1     2 1   
     2     1     6 1   
     3     1    18 1   
     4     1    23 1   
     5     2     3 1   
     6     2    21 1   
     7     2    24 1   
     8     3     4 1   
     9     3    20 1   
    10     3    25 1   
    11     4     5 1   
    12     4    19 1   
    13     4    26 1   
    14     5     6 1   
    15     6     7 1   
    16     6    10 1   
    17     7     8 2   
    18     8     9 1   
    19     8    12 1   
    20     9    10 1   
    21     9    27 1   
    22    10    11 2   
    23    12    13 ar  
    24    12    17 ar  
    25    13    14 ar  
    26    13    28 1   
    27    14    15 ar  
    28    14    29 1   
    29    15    16 ar  
    30    15    30 1   
    31    16    17 ar  
    32    16    31 1   
    33    17    32 1   
    34    18    33 1   
    35    19    22 1   
    36    19    34 1   
    37    19    35 1   
    38    20    36 1   
    39    21    37 1   
    40    22    38 1   
@<TRIPOS>SUBSTRUCTURE
     1 HTE         1 TEMP              0 ****  ****    0 ROOT
