@<TRIPOS>MOLECULE
HTF
   37    37     1     0     0
SMALL
No Charge or Current Charge


@<TRIPOS>ATOM
      1 C8           7.8000     0.2760     0.7110 c3         1 HTF      -0.088100
      2 C7           6.4780     0.6360     0.0050 c3         1 HTF      -0.075400
      3 C6           5.2940    -0.2490     0.4510 c3         1 HTF      -0.075400
      4 C5           3.9690     0.1130    -0.2570 c3         1 HTF      -0.074400
      5 C4           2.7850    -0.7720     0.1890 c3         1 HTF      -0.076400
      6 C3           1.4600    -0.4110    -0.5180 c3         1 HTF      -0.066400
      7 C2           0.2750    -1.2990    -0.0700 c3         1 HTF      -0.154400
      8 C1          -1.0220    -0.9110    -0.7880 c          1 HTF       0.607100
      9 O1          -1.2310    -1.1950    -1.9590 o          1 HTF      -0.583100
     10 N           -1.9420    -0.2440     0.0010 ns         1 HTF      -0.509900
     11 CA          -3.2410     0.1560    -0.6040 c5         1 HTF       0.003700
     12 C           -3.8620     1.2680     0.2750 c          1 HTF       0.632100
     13 O           -3.7190     2.4760     0.1490 o          1 HTF      -0.464000
     14 OD          -4.8160     0.7070     1.0800 os         1 HTF      -0.428100
     15 CG          -4.7220    -0.7360     1.0320 c5         1 HTF       0.155600
     16 CB          -4.1890    -1.0550    -0.3890 c5         1 HTF      -0.136400
     17 H81          7.7050     0.3950     1.7970 hc         1 HTF       0.031700
     18 H82          8.0820    -0.7630     0.5000 hc         1 HTF       0.031700
     19 H83          8.6090     0.9290     0.3630 hc         1 HTF       0.031700
     20 H72          6.2420     1.6890     0.2070 hc         1 HTF       0.037700
     21 H73          6.6160     0.5410    -1.0790 hc         1 HTF       0.037700
     22 H62          5.5340    -1.3000     0.2500 hc         1 HTF       0.036200
     23 H63          5.1610    -0.1520     1.5360 hc         1 HTF       0.036200
     24 H52          3.7290     1.1650    -0.0560 hc         1 HTF       0.040700
     25 H53          4.1030     0.0170    -1.3420 hc         1 HTF       0.040700
     26 H42          3.0260    -1.8240    -0.0120 hc         1 HTF       0.035200
     27 H43          2.6520    -0.6760     1.2740 hc         1 HTF       0.035200
     28 H32          1.2190     0.6410    -0.3170 hc         1 HTF       0.057700
     29 H33          1.5940    -0.5060    -1.6030 hc         1 HTF       0.057700
     30 H22          0.5110    -2.3410    -0.3140 hc         1 HTF       0.055200
     31 H23          0.1510    -1.1910     1.0140 hc         1 HTF       0.055200
     32 HN          -1.6720    -0.0490     0.9600 hn         1 HTF       0.314500
     33 HA          -3.1780     0.4930    -1.6480 h1         1 HTF       0.122700
     34 HG2         -5.7010    -1.1880     1.2390 h1         1 HTF       0.063200
     35 HG3         -4.0140    -1.0670     1.8040 h1         1 HTF       0.063200
     36 HB2         -5.0090    -1.0450    -1.1160 hc         1 HTF       0.074200
     37 HB3         -3.7000    -2.0330    -0.4600 hc         1 HTF       0.074200
@<TRIPOS>BOND
     1     1     2 1   
     2     1    17 1   
     3     1    18 1   
     4     1    19 1   
     5     2     3 1   
     6     2    20 1   
     7     2    21 1   
     8     3     4 1   
     9     3    22 1   
    10     3    23 1   
    11     4     5 1   
    12     4    24 1   
    13     4    25 1   
    14     5     6 1   
    15     5    26 1   
    16     5    27 1   
    17     6     7 1   
    18     6    28 1   
    19     6    29 1   
    20     7     8 1   
    21     7    30 1   
    22     7    31 1   
    23     8     9 2   
    24     8    10 1   
    25    10    11 1   
    26    10    32 1   
    27    11    12 1   
    28    11    16 1   
    29    11    33 1   
    30    12    13 2   
    31    12    14 1   
    32    14    15 1   
    33    15    16 1   
    34    15    34 1   
    35    15    35 1   
    36    16    36 1   
    37    16    37 1   
@<TRIPOS>SUBSTRUCTURE
     1 HTF         1 TEMP              0 ****  ****    0 ROOT
