@<TRIPOS>MOLECULE
HTF
   37    37     1     0     0
SMALL
abcg2


@<TRIPOS>ATOM
      1 C8           7.8970    -0.0470     0.6210 c3         1 HTF      -0.088100
      2 C7           6.6340     0.4540    -0.0660 c3         1 HTF      -0.075400
      3 C6           5.3720    -0.2400     0.4320 c3         1 HTF      -0.075400
      4 C5           4.1050     0.2440    -0.2600 c3         1 HTF      -0.074400
      5 C4           2.8470    -0.4620     0.2300 c3         1 HTF      -0.076400
      6 C3           1.5870     0.0050    -0.4890 c3         1 HTF      -0.066400
      7 C2           0.3450    -0.7230     0.0060 c3         1 HTF      -0.154400
      8 C1          -0.9170    -0.3430    -0.7350 c          1 HTF       0.607100
      9 O1          -0.9140     0.0520    -1.8900 o          1 HTF      -0.583100
     10 N           -2.0550    -0.5190    -0.0270 ns         1 HTF      -0.509900
     11 CA          -3.3720    -0.3210    -0.5800 c5         1 HTF       0.003700
     12 C           -3.9930     0.9430     0.0130 c          1 HTF       0.632100
     13 O           -3.6950     2.0820    -0.2140 o          1 HTF      -0.464000
     14 OD          -4.9400     0.6190     0.8880 os         1 HTF      -0.428100
     15 CG          -5.0490    -0.8070     1.0460 c5         1 HTF       0.155600
     16 CB          -4.3790    -1.3950    -0.1900 c5         1 HTF      -0.136400
     17 H81          7.8550     0.1240     1.6980 hc         1 HTF       0.031700
     18 H82          8.0310    -1.1190     0.4650 hc         1 HTF       0.031700
     19 H83          8.7870     0.4570     0.2410 hc         1 HTF       0.031700
     20 H72          6.5370     1.5340     0.0870 hc         1 HTF       0.037700
     21 H73          6.7220     0.3080    -1.1470 hc         1 HTF       0.037700
     22 H62          5.4740    -1.3220     0.2870 hc         1 HTF       0.036200
     23 H63          5.2780    -0.0890     1.5140 hc         1 HTF       0.036200
     24 H52          3.9980     1.3240    -0.1110 hc         1 HTF       0.040700
     25 H53          4.2040     0.0960    -1.3410 hc         1 HTF       0.040700
     26 H42          2.9610    -1.5430     0.0930 hc         1 HTF       0.035200
     27 H43          2.7370    -0.3030     1.3080 hc         1 HTF       0.035200
     28 H32          1.4640     1.0830    -0.3480 hc         1 HTF       0.057700
     29 H33          1.7020    -0.1560    -1.5630 hc         1 HTF       0.057700
     30 H22          0.4770    -1.8040    -0.1200 hc         1 HTF       0.055200
     31 H23          0.2140    -0.5630     1.0800 hc         1 HTF       0.055200
     32 HN          -1.9800    -0.8370     0.9270 hn         1 HTF       0.314500
     33 HA          -3.2720    -0.2070    -1.6570 h1         1 HTF       0.122700
     34 HG2         -6.1040    -1.0580     1.1280 h1         1 HTF       0.063200
     35 HG3         -4.5490    -1.0920     1.9730 h1         1 HTF       0.063200
     36 HB2         -5.1080    -1.5150    -0.9920 hc         1 HTF       0.074200
     37 HB3         -3.9230    -2.3650     0.0000 hc         1 HTF       0.074200
@<TRIPOS>BOND
     1     1     2 1   
     2     1    17 1   
     3     1    18 1   
     4     1    19 1   
     5     2     3 1   
     6     2    20 1   
     7     2    21 1   
     8     3     4 1   
     9     3    22 1   
    10     3    23 1   
    11     4     5 1   
    12     4    24 1   
    13     4    25 1   
    14     5     6 1   
    15     5    26 1   
    16     5    27 1   
    17     6     7 1   
    18     6    28 1   
    19     6    29 1   
    20     7     8 1   
    21     7    30 1   
    22     7    31 1   
    23     8     9 2   
    24     8    10 1   
    25    10    11 1   
    26    10    32 1   
    27    11    12 1   
    28    11    16 1   
    29    11    33 1   
    30    12    13 2   
    31    12    14 1   
    32    14    15 1   
    33    15    16 1   
    34    15    34 1   
    35    15    35 1   
    36    16    36 1   
    37    16    37 1   
@<TRIPOS>SUBSTRUCTURE
     1 HTF         1 TEMP              0 ****  ****    0 ROOT
