@<TRIPOS>MOLECULE
HTG
   45    45     1     0     0
SMALL
No Charge or Current Charge


@<TRIPOS>ATOM
      1 C1          -1.5840     0.7390     0.1800 c6         1 HTG       0.267300
      2 S1          -0.0730     1.5360    -0.5280 ss         1 HTG      -0.418000
      3 C2          -2.8920     1.5140    -0.1830 c6         1 HTG       0.123300
      4 O2          -2.8770     2.8740     0.3130 oh         1 HTG      -0.724000
      5 C3          -4.1110     0.7440     0.4000 c6         1 HTG       0.140300
      6 O3          -5.3370     1.4090     0.0500 oh         1 HTG      -0.665000
      7 C4          -4.1140    -0.7280    -0.1100 c6         1 HTG       0.146300
      8 O4          -5.2270    -1.4380     0.4670 oh         1 HTG      -0.719000
      9 C5          -2.7440    -1.3950     0.2330 c6         1 HTG       0.160300
     10 O5          -1.6610    -0.6070    -0.3290 os         1 HTG      -0.419000
     11 C6          -2.6320    -2.8530    -0.3240 c3         1 HTG       0.172600
     12 O6          -1.3540    -3.4690    -0.0610 oh         1 HTG      -0.713000
     13 C8           1.2230     0.3820     0.1100 c3         1 HTG       0.071600
     14 C9           2.6260     0.8700    -0.3000 c3         1 HTG      -0.066400
     15 C10          3.7550    -0.0540     0.2040 c3         1 HTG      -0.074400
     16 C11          5.1630     0.4320    -0.2050 c3         1 HTG      -0.074400
     17 C12          6.2920    -0.4930     0.3000 c3         1 HTG      -0.075400
     18 C13          7.6990    -0.0070    -0.1090 c3         1 HTG      -0.075400
     19 C7           8.8260    -0.9290     0.3960 c3         1 HTG      -0.088100
     20 H1          -1.4540     0.7170     1.2720 h2         1 HTG       0.061700
     21 H2          -2.9790     1.5200    -1.2800 h1         1 HTG       0.066700
     22 HO2         -2.0280     3.2750     0.0070 ho         1 HTG       0.527000
     23 H3          -4.0020     0.7260     1.4950 h1         1 HTG       0.051700
     24 HO3         -5.1290     2.3700     0.1270 ho         1 HTG       0.465000
     25 H4          -4.2160    -0.7100    -1.2060 h1         1 HTG       0.055700
     26 HO4         -5.9720    -0.7880     0.4570 ho         1 HTG       0.525000
     27 H5          -2.6210    -1.4360     1.3250 h1         1 HTG       0.059700
     28 H61         -3.4350    -3.4540     0.1250 h1         1 HTG       0.037200
     29 H62         -2.8190    -2.8190    -1.4060 h1         1 HTG       0.037200
     30 HO6         -1.3650    -4.3520    -0.5000 ho         1 HTG       0.504000
     31 H1'1         1.0450    -0.6220    -0.2980 h1         1 HTG       0.065700
     32 H1'2         1.1530     0.3300     1.2040 h1         1 HTG       0.065700
     33 H2'1         2.7810     1.8820     0.0930 hc         1 HTG       0.052200
     34 H2'2         2.6740     0.9390    -1.3940 hc         1 HTG       0.052200
     35 H3'1         3.5940    -1.0660    -0.1890 hc         1 HTG       0.040200
     36 H3'2         3.7010    -0.1230     1.2980 hc         1 HTG       0.040200
     37 H4'1         5.3230     1.4440     0.1880 hc         1 HTG       0.038700
     38 H4'2         5.2160     0.5010    -1.2990 hc         1 HTG       0.038700
     39 H5'1         6.1320    -1.5040    -0.0920 hc         1 HTG       0.037200
     40 H5'2         6.2390    -0.5610     1.3940 hc         1 HTG       0.037200
     41 H6'1         7.8640     1.0040     0.2840 hc         1 HTG       0.036700
     42 H6'2         7.7570     0.0610    -1.2020 hc         1 HTG       0.036700
     43 H7'1         8.8170    -0.9900     1.4900 hc         1 HTG       0.031700
     44 H7'2         8.7100    -1.9410    -0.0090 hc         1 HTG       0.031700
     45 H7'3         9.8040    -0.5440     0.0820 hc         1 HTG       0.031700
@<TRIPOS>BOND
     1     1     2 1   
     2     1     3 1   
     3     1    10 1   
     4     1    20 1   
     5     2    13 1   
     6     3     4 1   
     7     3     5 1   
     8     3    21 1   
     9     4    22 1   
    10     5     6 1   
    11     5     7 1   
    12     5    23 1   
    13     6    24 1   
    14     7     8 1   
    15     7     9 1   
    16     7    25 1   
    17     8    26 1   
    18     9    10 1   
    19     9    11 1   
    20     9    27 1   
    21    11    12 1   
    22    11    28 1   
    23    11    29 1   
    24    12    30 1   
    25    13    14 1   
    26    13    31 1   
    27    13    32 1   
    28    14    15 1   
    29    14    33 1   
    30    14    34 1   
    31    15    16 1   
    32    15    35 1   
    33    15    36 1   
    34    16    17 1   
    35    16    37 1   
    36    16    38 1   
    37    17    18 1   
    38    17    39 1   
    39    17    40 1   
    40    18    19 1   
    41    18    41 1   
    42    18    42 1   
    43    19    43 1   
    44    19    44 1   
    45    19    45 1   
@<TRIPOS>SUBSTRUCTURE
     1 HTG         1 TEMP              0 ****  ****    0 ROOT
