@<TRIPOS>MOLECULE
HTG
   45    45     1     0     0
SMALL
abcg2


@<TRIPOS>ATOM
      1 C1          -1.4670     0.3280    -0.0450 c6         1 HTG       0.267300
      2 S1          -0.0290     0.9680    -0.9270 ss         1 HTG      -0.418000
      3 C2          -2.5880     1.3700    -0.0900 c6         1 HTG       0.123300
      4 O2          -2.2430     2.5400     0.6030 oh         1 HTG      -0.724000
      5 C3          -3.8230     0.7870     0.5850 c6         1 HTG       0.140300
      6 O3          -4.9480     1.6210     0.4430 oh         1 HTG      -0.665000
      7 C4          -4.1810    -0.5680    -0.0130 c6         1 HTG       0.146300
      8 O4          -5.2180    -1.1850     0.7080 oh         1 HTG      -0.719000
      9 C5          -2.9600    -1.4880     0.0260 c6         1 HTG       0.160300
     10 O5          -1.8800    -0.8690    -0.6480 os         1 HTG      -0.419000
     11 C6          -3.2260    -2.8140    -0.6520 c3         1 HTG       0.172600
     12 O6          -2.0940    -3.6370    -0.5000 oh         1 HTG      -0.713000
     13 C8           1.3180     0.1110    -0.0550 c3         1 HTG       0.071600
     14 C9           2.6640     0.6200    -0.5460 c3         1 HTG      -0.066400
     15 C10          3.8180    -0.0700     0.1720 c3         1 HTG      -0.074400
     16 C11          5.1840     0.4200    -0.2910 c3         1 HTG      -0.074400
     17 C12          6.3380    -0.2650     0.4280 c3         1 HTG      -0.075400
     18 C13          7.7080     0.2220    -0.0290 c3         1 HTG      -0.075400
     19 C7           8.8540    -0.4680     0.6980 c3         1 HTG      -0.088100
     20 H1          -1.1710     0.1610     1.0020 h2         1 HTG       0.061700
     21 H2          -2.8270     1.5780    -1.1450 h1         1 HTG       0.066700
     22 HO2         -1.4760     2.9360     0.1730 ho         1 HTG       0.527000
     23 H3          -3.5820     0.6340     1.6500 h1         1 HTG       0.051700
     24 HO3         -4.8270     2.3990     0.9950 ho         1 HTG       0.465000
     25 H4          -4.4670    -0.4180    -1.0670 h1         1 HTG       0.055700
     26 HO4         -5.9860    -0.6060     0.6850 ho         1 HTG       0.525000
     27 H5          -2.6930    -1.6690     1.0800 h1         1 HTG       0.059700
     28 H61         -4.1150    -3.2630    -0.1980 h1         1 HTG       0.037200
     29 H62         -3.4600    -2.6340    -1.7110 h1         1 HTG       0.037200
     30 HO6         -2.3090    -4.5040    -0.8550 ho         1 HTG       0.504000
     31 H1'1         1.2260    -0.9620    -0.2300 h1         1 HTG       0.065700
     32 H1'2         1.2060     0.2920     1.0150 h1         1 HTG       0.065700
     33 H2'1         2.7280     1.7000    -0.3880 hc         1 HTG       0.052200
     34 H2'2         2.7520     0.4540    -1.6240 hc         1 HTG       0.052200
     35 H3'1         3.7480    -1.1520     0.0170 hc         1 HTG       0.040200
     36 H3'2         3.7210     0.0890     1.2510 hc         1 HTG       0.040200
     37 H4'1         5.2520     1.5030    -0.1380 hc         1 HTG       0.038700
     38 H4'2         5.2800     0.2610    -1.3710 hc         1 HTG       0.038700
     39 H5'1         6.2690    -1.3480     0.2750 hc         1 HTG       0.037200
     40 H5'2         6.2400    -0.1060     1.5070 hc         1 HTG       0.037200
     41 H6'1         7.7760     1.3040     0.1220 hc         1 HTG       0.036700
     42 H6'2         7.8070     0.0610    -1.1070 hc         1 HTG       0.036700
     43 H7'1         8.7980    -0.2950     1.7750 hc         1 HTG       0.031700
     44 H7'2         8.8290    -1.5470     0.5380 hc         1 HTG       0.031700
     45 H7'3         9.8240    -0.1050     0.3550 hc         1 HTG       0.031700
@<TRIPOS>BOND
     1     1     2 1   
     2     1     3 1   
     3     1    10 1   
     4     1    20 1   
     5     2    13 1   
     6     3     4 1   
     7     3     5 1   
     8     3    21 1   
     9     4    22 1   
    10     5     6 1   
    11     5     7 1   
    12     5    23 1   
    13     6    24 1   
    14     7     8 1   
    15     7     9 1   
    16     7    25 1   
    17     8    26 1   
    18     9    10 1   
    19     9    11 1   
    20     9    27 1   
    21    11    12 1   
    22    11    28 1   
    23    11    29 1   
    24    12    30 1   
    25    13    14 1   
    26    13    31 1   
    27    13    32 1   
    28    14    15 1   
    29    14    33 1   
    30    14    34 1   
    31    15    16 1   
    32    15    35 1   
    33    15    36 1   
    34    16    17 1   
    35    16    37 1   
    36    16    38 1   
    37    17    18 1   
    38    17    39 1   
    39    17    40 1   
    40    18    19 1   
    41    18    41 1   
    42    18    42 1   
    43    19    43 1   
    44    19    44 1   
    45    19    45 1   
@<TRIPOS>SUBSTRUCTURE
     1 HTG         1 TEMP              0 ****  ****    0 ROOT
