@<TRIPOS>MOLECULE
HTH
   26    25     1     0     0
SMALL
abcg2


@<TRIPOS>ATOM
      1 C1          -2.8350    -0.4400    -0.3640 c3         1 HTH       0.131600
      2 O1          -3.9970     0.1390     0.1860 oh         1 HTH      -0.709000
      3 C2          -1.6170     0.2740     0.2010 c3         1 HTH       0.135300
      4 O2          -1.6480     1.6540    -0.0900 oh         1 HTH      -0.637000
      5 C3          -0.3050    -0.3700    -0.2800 c3         1 HTH       0.134300
      6 O3          -0.2920    -1.7570    -0.0040 oh         1 HTH      -0.716000
      7 C4           0.9220     0.3290     0.2940 c3         1 HTH      -0.106400
      8 C5           2.2420    -0.2200    -0.2340 c3         1 HTH      -0.073400
      9 C6           3.4510     0.4930     0.3590 c3         1 HTH      -0.076400
     10 C7           4.7740    -0.0520    -0.1590 c3         1 HTH      -0.088100
     11 H1          -2.7680    -1.5070    -0.1300 h1         1 HTH       0.028200
     12 H1A         -2.8210    -0.3550    -1.4620 h1         1 HTH       0.028200
     13 HO1         -4.7510    -0.3810    -0.1050 ho         1 HTH       0.502000
     14 H2          -1.6510     0.2040     1.2960 h1         1 HTH       0.080700
     15 HO2         -1.6390     1.7650    -1.0470 ho         1 HTH       0.437000
     16 H3          -0.2700    -0.2950    -1.3750 h1         1 HTH       0.066700
     17 HO3         -0.2070    -1.8740     0.9500 ho         1 HTH       0.502000
     18 H4           0.8610     1.3970     0.0720 hc         1 HTH       0.051700
     19 H4A          0.9000     0.2480     1.3890 hc         1 HTH       0.051700
     20 H5           2.3160    -1.2900    -0.0210 hc         1 HTH       0.043200
     21 H5A          2.2640    -0.1240    -1.3250 hc         1 HTH       0.043200
     22 H6           3.3830     1.5640     0.1410 hc         1 HTH       0.037200
     23 H6A          3.4210     0.4060     1.4500 hc         1 HTH       0.037200
     24 H7           4.8820    -1.1130     0.0760 hc         1 HTH       0.032367
     25 H7A          4.8470     0.0510    -1.2430 hc         1 HTH       0.032367
     26 H7B          5.6230     0.4720     0.2810 hc         1 HTH       0.032367
@<TRIPOS>BOND
     1     1     2 1   
     2     1     3 1   
     3     1    11 1   
     4     1    12 1   
     5     2    13 1   
     6     3     4 1   
     7     3     5 1   
     8     3    14 1   
     9     4    15 1   
    10     5     6 1   
    11     5     7 1   
    12     5    16 1   
    13     6    17 1   
    14     7     8 1   
    15     7    18 1   
    16     7    19 1   
    17     8     9 1   
    18     8    20 1   
    19     8    21 1   
    20     9    10 1   
    21     9    22 1   
    22     9    23 1   
    23    10    24 1   
    24    10    25 1   
    25    10    26 1   
@<TRIPOS>SUBSTRUCTURE
     1 HTH         1 TEMP              0 ****  ****    0 ROOT
