@<TRIPOS>MOLECULE
HTH
   26    25     1     0     0
SMALL
No Charge or Current Charge


@<TRIPOS>ATOM
      1 C1          -2.8800    -0.4420    -0.4500 c3         1 HTH       0.131600
      2 O1          -4.0690     0.3080    -0.1300 oh         1 HTH      -0.709000
      3 C2          -1.6310     0.2660     0.1450 c3         1 HTH       0.135300
      4 O2          -1.6840     1.6440    -0.2600 oh         1 HTH      -0.637000
      5 C3          -0.2820    -0.3940    -0.2970 c3         1 HTH       0.134300
      6 O3          -0.2630    -1.7830     0.0840 oh         1 HTH      -0.716000
      7 C4           0.9710     0.3070     0.2970 c3         1 HTH      -0.106400
      8 C5           2.3200    -0.2640    -0.2060 c3         1 HTH      -0.073400
      9 C6           3.5420     0.4940     0.3580 c3         1 HTH      -0.076400
     10 C7           4.8860    -0.0700    -0.1430 c3         1 HTH      -0.088100
     11 H1          -2.9510    -1.4580    -0.0400 h1         1 HTH       0.028200
     12 H1A         -2.7640    -0.5290    -1.5390 h1         1 HTH       0.028200
     13 HO1         -4.8390    -0.2150    -0.4600 ho         1 HTH       0.502000
     14 H2          -1.7010     0.2000     1.2410 h1         1 HTH       0.080700
     15 HO2         -2.6490     1.8360    -0.3080 ho         1 HTH       0.437000
     16 H3          -0.2240    -0.3150    -1.3930 h1         1 HTH       0.066700
     17 HO3          0.0150    -1.8240     1.0270 ho         1 HTH       0.502000
     18 H4           0.9370     1.3720     0.0400 hc         1 HTH       0.051700
     19 H4A          0.9370     0.2520     1.3930 hc         1 HTH       0.051700
     20 H5           2.4010    -1.3220     0.0700 hc         1 HTH       0.043200
     21 H5A          2.3430    -0.2170    -1.3020 hc         1 HTH       0.043200
     22 H6           3.4750     1.5530     0.0790 hc         1 HTH       0.037200
     23 H6A          3.5240     0.4490     1.4540 hc         1 HTH       0.037200
     24 H7           5.0010    -1.1210     0.1510 hc         1 HTH       0.032367
     25 H7A          4.9500    -0.0070    -1.2360 hc         1 HTH       0.032367
     26 H7B          5.7220     0.4980     0.2820 hc         1 HTH       0.032367
@<TRIPOS>BOND
     1     1     2 1   
     2     1     3 1   
     3     1    11 1   
     4     1    12 1   
     5     2    13 1   
     6     3     4 1   
     7     3     5 1   
     8     3    14 1   
     9     4    15 1   
    10     5     6 1   
    11     5     7 1   
    12     5    16 1   
    13     6    17 1   
    14     7     8 1   
    15     7    18 1   
    16     7    19 1   
    17     8     9 1   
    18     8    20 1   
    19     8    21 1   
    20     9    10 1   
    21     9    22 1   
    22     9    23 1   
    23    10    24 1   
    24    10    25 1   
    25    10    26 1   
@<TRIPOS>SUBSTRUCTURE
     1 HTH         1 TEMP              0 ****  ****    0 ROOT
