@<TRIPOS>MOLECULE
HTJ
   38    41     1     0     0
SMALL
abcg2


@<TRIPOS>ATOM
      1 C1           4.8520    -0.7250    -1.1080 ca         1 HTJ       0.321400
      2 C2           4.2550    -0.0950    -0.0270 ca         1 HTJ      -0.137000
      3 C3           3.1770    -0.7110     0.5970 ca         1 HTJ      -0.068300
      4 C4           2.7540    -1.9350     0.0970 ca         1 HTJ      -0.137000
      5 C5           3.4190    -2.4820    -0.9910 ca         1 HTJ       0.321400
      6 N6           4.4500    -1.8970    -1.5890 nb         1 HTJ      -0.674000
      7 C7           2.4670    -0.0510     1.7500 c3         1 HTJ       0.150900
      8 N8           1.5720     0.9830     1.2910 na         1 HTJ      -0.058100
      9 C9           0.3320     0.8130     0.7730 ca         1 HTJ       0.356500
     10 C10         -0.0980     2.0730     0.3240 ca         1 HTJ      -0.221900
     11 C11          0.9990     2.9270     0.6130 cc         1 HTJ       0.417800
     12 N12          1.9740     2.2550     1.1740 nd         1 HTJ      -0.572100
     13 N13         -0.3350    -0.3290     0.7170 nb         1 HTJ      -0.728000
     14 C14         -1.5400    -0.2520     0.1710 cp         1 HTJ       0.410500
     15 C15         -2.0760     0.9590    -0.3210 ca         1 HTJ      -0.179000
     16 C16         -1.3730     2.1450    -0.2520 ca         1 HTJ      -0.026600
     17 C18         -1.9590     3.4510    -0.7810 c          1 HTJ       0.715600
     18 O19         -1.2430     4.4570    -0.6370 o          1 HTJ      -0.705500
     19 O20         -3.0870     3.3850    -1.2980 o          1 HTJ      -0.705500
     20 C21         -2.3040    -1.5160     0.0820 cp         1 HTJ      -0.119500
     21 C22         -1.6320    -2.7400     0.1110 ca         1 HTJ      -0.087000
     22 C23         -2.3290    -3.9350     0.0270 ca         1 HTJ      -0.127000
     23 C24         -3.7140    -3.9310    -0.0810 ca         1 HTJ      -0.120000
     24 C25         -4.3940    -2.7210    -0.1020 ca         1 HTJ      -0.127000
     25 C26         -3.6950    -1.5240    -0.0240 ca         1 HTJ      -0.087000
     26 H1           5.6970    -0.2620    -1.6050 h4         1 HTJ       0.010600
     27 H2           4.6310     0.8590     0.3190 ha         1 HTJ       0.131500
     28 H4           1.9180    -2.4590     0.5410 ha         1 HTJ       0.131500
     29 H5           3.1030    -3.4380    -1.3930 h4         1 HTJ       0.010600
     30 H7           1.8850    -0.7830     2.3100 h1         1 HTJ       0.066700
     31 H7A          3.1770     0.4090     2.4360 h1         1 HTJ       0.066700
     32 H11          1.0960     3.9850     0.4330 h4         1 HTJ       0.071800
     33 H15         -3.0530     0.9660    -0.7830 ha         1 HTJ       0.142000
     34 H22         -0.5530    -2.7540     0.1920 ha         1 HTJ       0.125500
     35 H23         -1.7880    -4.8720     0.0430 ha         1 HTJ       0.101500
     36 H24         -4.2600    -4.8630    -0.1470 ha         1 HTJ       0.098000
     37 H25         -5.4730    -2.7050    -0.1740 ha         1 HTJ       0.101500
     38 H26         -4.2530    -0.5970    -0.0260 ha         1 HTJ       0.125500
@<TRIPOS>BOND
     1     1     2 ar  
     2     1     6 ar  
     3     1    26 1   
     4     2     3 ar  
     5     2    27 1   
     6     3     4 ar  
     7     3     7 1   
     8     4     5 ar  
     9     4    28 1   
    10     5     6 ar  
    11     5    29 1   
    12     7     8 1   
    13     7    30 1   
    14     7    31 1   
    15     8     9 1   
    16     8    12 1   
    17     9    10 ar  
    18     9    13 ar  
    19    10    11 1   
    20    10    16 ar  
    21    11    12 2   
    22    11    32 1   
    23    13    14 ar  
    24    14    15 ar  
    25    14    20 1   
    26    15    16 ar  
    27    15    33 1   
    28    16    17 1   
    29    17    18 1   
    30    17    19 1   
    31    20    21 ar  
    32    20    25 ar  
    33    21    22 ar  
    34    21    34 1   
    35    22    23 ar  
    36    22    35 1   
    37    23    24 ar  
    38    23    36 1   
    39    24    25 ar  
    40    24    37 1   
    41    25    38 1   
@<TRIPOS>SUBSTRUCTURE
     1 HTJ         1 TEMP              0 ****  ****    0 ROOT
