@<TRIPOS>MOLECULE
HTJ
   38    41     1     0     0
SMALL
No Charge or Current Charge


@<TRIPOS>ATOM
      1 C1           4.3390    -0.9860    -1.4610 ca         1 HTJ       0.321400
      2 C2           3.8070    -0.1600    -0.4560 ca         1 HTJ      -0.137000
      3 C3           3.1660    -0.7440     0.6530 ca         1 HTJ      -0.068300
      4 C4           3.0950    -2.1490     0.6960 ca         1 HTJ      -0.137000
      5 C5           3.6530    -2.9010    -0.3540 ca         1 HTJ       0.321400
      6 N6           4.2680    -2.3380    -1.4200 nb         1 HTJ      -0.674000
      7 C7           2.5690     0.1110     1.7690 c3         1 HTJ       0.150900
      8 N8           1.6660     1.1720     1.2820 na         1 HTJ      -0.058100
      9 C9           0.4010     0.9060     0.7830 ca         1 HTJ       0.356500
     10 C10         -0.0980     2.1260     0.4250 ca         1 HTJ      -0.221900
     11 C11          0.9310     3.0930     0.7430 cc         1 HTJ       0.417800
     12 N12          2.0230     2.5190     1.2710 nd         1 HTJ      -0.572100
     13 N13         -0.2850    -0.2430     0.6360 nb         1 HTJ      -0.728000
     14 C14         -1.5310    -0.1800     0.1030 cp         1 HTJ       0.410500
     15 C15         -2.0980     1.0630    -0.2980 ca         1 HTJ      -0.179000
     16 C16         -1.3820     2.2750    -0.1410 ca         1 HTJ      -0.026600
     17 C18         -1.9730     3.6170    -0.5660 c          1 HTJ       0.715600
     18 O19         -1.3000     4.6290    -0.4290 o          1 HTJ      -0.705500
     19 O20         -3.1050     3.6350    -1.0300 o          1 HTJ      -0.705500
     20 C21         -2.2620    -1.4890    -0.0570 cp         1 HTJ      -0.119500
     21 C22         -1.5570    -2.7220    -0.1550 ca         1 HTJ      -0.087000
     22 C23         -2.2370    -3.9430    -0.3070 ca         1 HTJ      -0.127000
     23 C24         -3.6380    -3.9670    -0.3600 ca         1 HTJ      -0.120000
     24 C25         -4.3600    -2.7680    -0.2590 ca         1 HTJ      -0.127000
     25 C26         -3.6820    -1.5450    -0.1080 ca         1 HTJ      -0.087000
     26 H1           4.8380    -0.5540    -2.3270 h4         1 HTJ       0.010600
     27 H2           3.8960     0.9200    -0.5460 ha         1 HTJ       0.131500
     28 H4           2.6120    -2.6600     1.5240 ha         1 HTJ       0.131500
     29 H5           3.6060    -3.9890    -0.3400 h4         1 HTJ       0.010600
     30 H7           2.0070    -0.5260     2.4630 h1         1 HTJ       0.066700
     31 H7A          3.3840     0.5750     2.3380 h1         1 HTJ       0.066700
     32 H11          0.9580     4.1680     0.6260 h4         1 HTJ       0.071800
     33 H15         -3.0850     1.0810    -0.7460 ha         1 HTJ       0.142000
     34 H22         -0.4700    -2.7320    -0.1230 ha         1 HTJ       0.125500
     35 H23         -1.6740    -4.8710    -0.3840 ha         1 HTJ       0.101500
     36 H24         -4.1640    -4.9120    -0.4770 ha         1 HTJ       0.098000
     37 H25         -5.4470    -2.7850    -0.2930 ha         1 HTJ       0.101500
     38 H26         -4.2730    -0.6380    -0.0140 ha         1 HTJ       0.125500
@<TRIPOS>BOND
     1     1     2 ar  
     2     1     6 ar  
     3     1    26 1   
     4     2     3 ar  
     5     2    27 1   
     6     3     4 ar  
     7     3     7 1   
     8     4     5 ar  
     9     4    28 1   
    10     5     6 ar  
    11     5    29 1   
    12     7     8 1   
    13     7    30 1   
    14     7    31 1   
    15     8     9 1   
    16     8    12 1   
    17     9    10 ar  
    18     9    13 ar  
    19    10    11 1   
    20    10    16 ar  
    21    11    12 2   
    22    11    32 1   
    23    13    14 ar  
    24    14    15 ar  
    25    14    20 1   
    26    15    16 ar  
    27    15    33 1   
    28    16    17 1   
    29    17    18 1   
    30    17    19 1   
    31    20    21 ar  
    32    20    25 ar  
    33    21    22 ar  
    34    21    34 1   
    35    22    23 ar  
    36    22    35 1   
    37    23    24 ar  
    38    23    36 1   
    39    24    25 ar  
    40    24    37 1   
    41    25    38 1   
@<TRIPOS>SUBSTRUCTURE
     1 HTJ         1 TEMP              0 ****  ****    0 ROOT
