@<TRIPOS>MOLECULE
HTK
   34    34     1     0     0
SMALL
bcc


@<TRIPOS>ATOM
      1 C1          -2.5460     0.2300    -1.4190 ca         1 HTK      -0.079500
      2 C2          -3.7500     0.0390    -2.0740 ca         1 HTK      -0.141000
      3 C3          -4.8250    -0.5310    -1.4020 ca         1 HTK      -0.096000
      4 C4          -4.6920    -0.9090    -0.0730 ca         1 HTK      -0.141000
      5 C5          -3.4860    -0.7210     0.5840 ca         1 HTK      -0.079500
      6 C6          -2.4010    -0.1510    -0.0830 ca         1 HTK      -0.179600
      7 C7          -1.0950     0.0660     0.5860 c          1 HTK       0.594700
      8 O7          -0.1720     0.6020     0.0080 o          1 HTK      -0.524100
      9 C8          -0.9380    -0.3850     2.0210 c3         1 HTK      -0.292400
     10 C9           0.4710    -0.1810     2.5290 c          1 HTK       0.599100
     11 O9           0.7100     0.5300     3.4730 o          1 HTK      -0.479100
     12 C10          1.5560    -0.9390     1.8060 c3         1 HTK      -0.291400
     13 C11          2.4980    -0.0260     1.0340 c          1 HTK       0.598100
     14 O11          2.7740     1.0820     1.4190 o          1 HTK      -0.477100
     15 C12          3.0560    -0.6280    -0.2270 c3         1 HTK      -0.216400
     16 C13          4.2760     0.0860    -0.7930 c3         1 HTK       0.155100
     17 O13          5.3570     0.0530     0.1170 oh         1 HTK      -0.580800
     18 C14          4.6610    -0.4850    -2.1500 c3         1 HTK      -0.129100
     19 H1          -1.7120     0.6750    -1.9460 ha         1 HTK       0.142000
     20 H2          -3.8530     0.3340    -3.1100 ha         1 HTK       0.137500
     21 H3          -5.7670    -0.6790    -1.9140 ha         1 HTK       0.135000
     22 H4          -5.5280    -1.3520     0.4530 ha         1 HTK       0.137500
     23 H5          -3.4030    -1.0220     1.6200 ha         1 HTK       0.142000
     24 H6          -1.6460     0.1570     2.6530 hc         1 HTK       0.088200
     25 H7          -1.1890    -1.4480     2.1010 hc         1 HTK       0.088200
     26 H8           2.1750    -1.4590     2.5460 hc         1 HTK       0.075200
     27 H9           1.1490    -1.7060     1.1470 hc         1 HTK       0.075200
     28 H10          3.2730    -1.6890    -0.0520 hc         1 HTK       0.064200
     29 H11          2.2380    -0.6260    -0.9570 hc         1 HTK       0.064200
     30 H12          4.0340     1.1450    -0.9190 h1         1 HTK       0.092700
     31 H13          5.6490    -0.8610     0.2040 ho         1 HTK       0.392000
     32 H14          4.9070    -1.5470    -2.0800 hc         1 HTK       0.041367
     33 H15          3.8420    -0.3820    -2.8630 hc         1 HTK       0.041367
     34 H16          5.5270     0.0380    -2.5570 hc         1 HTK       0.041367
@<TRIPOS>BOND
     1     1     2 ar  
     2     1     6 ar  
     3     1    19 1   
     4     2     3 ar  
     5     2    20 1   
     6     3     4 ar  
     7     3    21 1   
     8     4     5 ar  
     9     4    22 1   
    10     5     6 ar  
    11     5    23 1   
    12     6     7 1   
    13     7     8 2   
    14     7     9 1   
    15     9    10 1   
    16     9    24 1   
    17     9    25 1   
    18    10    11 2   
    19    10    12 1   
    20    12    13 1   
    21    12    26 1   
    22    12    27 1   
    23    13    14 2   
    24    13    15 1   
    25    15    16 1   
    26    15    28 1   
    27    15    29 1   
    28    16    17 1   
    29    16    18 1   
    30    16    30 1   
    31    17    31 1   
    32    18    32 1   
    33    18    33 1   
    34    18    34 1   
@<TRIPOS>SUBSTRUCTURE
     1 HTK         1 TEMP              0 ****  ****    0 ROOT
