@<TRIPOS>MOLECULE
HTK
   34    34     1     0     0
SMALL
No Charge or Current Charge


@<TRIPOS>ATOM
      1 C1          -2.8330     0.5320    -1.1740 ca         1 HTK      -0.061500
      2 C2          -4.1900     0.8590    -1.3380 ca         1 HTK      -0.123000
      3 C3          -5.1810     0.1050    -0.6910 ca         1 HTK      -0.078000
      4 C4          -4.8120    -0.9830     0.1160 ca         1 HTK      -0.123000
      5 C5          -3.4560    -1.3140     0.2850 ca         1 HTK      -0.061500
      6 C6          -2.4480    -0.5520    -0.3520 ca         1 HTK      -0.179600
      7 C7          -0.9780    -0.8750    -0.2020 c          1 HTK       0.594700
      8 O7          -0.2070    -0.6820    -1.1310 o          1 HTK      -0.524100
      9 C8          -0.4410    -1.4350     1.1050 c3         1 HTK      -0.292400
     10 C9           0.2360    -0.2850     1.8270 c          1 HTK       0.599100
     11 O9          -0.4230     0.6030     2.3450 o          1 HTK      -0.479100
     12 C10          1.7530    -0.2930     1.9210 c3         1 HTK      -0.291400
     13 C11          2.2950     0.6100     0.8240 c          1 HTK       0.598100
     14 O11          2.2490     1.8270     0.9250 o          1 HTK      -0.477100
     15 C12          2.9060    -0.0600    -0.4110 c3         1 HTK      -0.216400
     16 C13          4.4440    -0.0430    -0.3470 c3         1 HTK       0.178300
     17 O13          4.8730    -0.8440     0.7540 oh         1 HTK      -0.643000
     18 C14          5.0920    -0.5860    -1.6340 c3         1 HTK      -0.129100
     19 H1          -2.0780     1.1290    -1.6820 ha         1 HTK       0.124000
     20 H2          -4.4730     1.7000    -1.9680 ha         1 HTK       0.119500
     21 H3          -6.2310     0.3580    -0.8200 ha         1 HTK       0.117000
     22 H4          -5.5800    -1.5760     0.6080 ha         1 HTK       0.119500
     23 H5          -3.2080    -2.1790     0.8950 ha         1 HTK       0.124000
     24 H6          -1.2540    -1.7810     1.7460 hc         1 HTK       0.088200
     25 H7           0.2850    -2.2220     0.8780 hc         1 HTK       0.088200
     26 H8           2.0440     0.1310     2.8890 hc         1 HTK       0.075200
     27 H9           2.1310    -1.3080     1.7640 hc         1 HTK       0.075200
     28 H10          2.5710    -1.1010    -0.4870 hc         1 HTK       0.064200
     29 H11          2.5910     0.4990    -1.3000 hc         1 HTK       0.064200
     30 H12          4.7770     0.9980    -0.2100 h1         1 HTK       0.092700
     31 H13          4.9300    -1.7690     0.4310 ho         1 HTK       0.431000
     32 H14          4.7770    -1.6180    -1.8320 hc         1 HTK       0.041367
     33 H15          4.8040     0.0290    -2.4960 hc         1 HTK       0.041367
     34 H16          6.1850    -0.5650    -1.5550 hc         1 HTK       0.041367
@<TRIPOS>BOND
     1     1     2 ar  
     2     1     6 ar  
     3     1    19 1   
     4     2     3 ar  
     5     2    20 1   
     6     3     4 ar  
     7     3    21 1   
     8     4     5 ar  
     9     4    22 1   
    10     5     6 ar  
    11     5    23 1   
    12     6     7 1   
    13     7     8 2   
    14     7     9 1   
    15     9    10 1   
    16     9    24 1   
    17     9    25 1   
    18    10    11 2   
    19    10    12 1   
    20    12    13 1   
    21    12    26 1   
    22    12    27 1   
    23    13    14 2   
    24    13    15 1   
    25    15    16 1   
    26    15    28 1   
    27    15    29 1   
    28    16    17 1   
    29    16    18 1   
    30    16    30 1   
    31    17    31 1   
    32    18    32 1   
    33    18    33 1   
    34    18    34 1   
@<TRIPOS>SUBSTRUCTURE
     1 HTK         1 TEMP              0 ****  ****    0 ROOT
