@<TRIPOS>MOLECULE
HTM
   35    35     1     0     0
SMALL
bcc


@<TRIPOS>ATOM
      1 O1A          0.2250    -4.1230    -0.4990 o          1 HTM      -0.800300
      2 C1          -0.9030    -3.7680    -0.1240 c          1 HTM       0.935800
      3 C2          -1.0970    -2.2720     0.1000 ce         1 HTM       0.061900
      4 C3          -2.2410    -1.7320     0.5240 c2         1 HTM      -0.385200
      5 C4          -2.4500    -0.2560     0.6890 c6         1 HTM       0.200300
      6 C5          -1.3140     0.4990     0.0110 c6         1 HTM       0.077700
      7 C6           0.0020    -0.2080     0.3370 c6         1 HTM       0.327900
      8 C8           3.2840     1.2560    -0.1650 c3         1 HTM      -0.089400
      9 C9           4.7050     0.9390     0.2600 c3         1 HTM       0.138400
     10 C11         -1.0600     4.2680     0.2400 c3         1 HTM      -0.180100
     11 N5          -1.2820     1.8750     0.4220 ns         1 HTM      -0.552900
     12 O1B         -1.8990    -4.4830     0.0900 o          1 HTM      -0.800300
     13 O4          -3.6600     0.1820     0.1090 oh         1 HTM      -0.594800
     14 O6           0.0010    -1.5270    -0.1780 os         1 HTM      -0.319900
     15 O7           1.0360     0.4810    -0.2360 os         1 HTM      -0.395600
     16 O9           5.5390     2.0100    -0.1240 oh         1 HTM      -0.601800
     17 O10         -1.1390     2.7970    -1.6390 o          1 HTM      -0.601100
     18 H3          -3.0630    -2.3950     0.7560 ha         1 HTM       0.158000
     19 H4          -2.4420    -0.0080     1.7620 h1         1 HTM       0.001700
     20 H5          -1.4610     0.4670    -1.0720 h1         1 HTM       0.124700
     21 H6           0.1240    -0.2720     1.4350 h2         1 HTM       0.009700
     22 H71          2.3250     0.0150     1.3160 h1         1 HTM       0.034700
     23 H72          2.6630    -0.8080    -0.2090 h1         1 HTM       0.034700
     24 H81          3.2510     1.4000    -1.2480 hc         1 HTM       0.060700
     25 H82          2.9590     2.1910     0.3010 hc         1 HTM       0.060700
     26 H91          4.7360     0.7770     1.3460 h1         1 HTM       0.016700
     27 H92          5.0230    -0.0030    -0.2080 h1         1 HTM       0.016700
     28 H111        -1.8100     4.9360    -0.1800 hc         1 HTM       0.050033
     29 H112        -1.1860     4.2390     1.3210 hc         1 HTM       0.050033
     30 H113        -0.0830     4.7000     0.0210 hc         1 HTM       0.050033
     31 HN5         -1.2690     2.0600     1.4130 hn         1 HTM       0.295500
     32 HO4         -4.3860    -0.1450     0.6490 ho         1 HTM       0.395000
     33 HO9          6.4380     1.7970     0.1410 ho         1 HTM       0.395000
     34 C7           2.3330     0.1420     0.2250 c3         1 HTM       0.147400
     35 C10         -1.1610     2.9170    -0.4220 c          1 HTM       0.677100
@<TRIPOS>BOND
     1     1     2 1   
     2     2     3 1   
     3     2    12 1   
     4     3     4 2   
     5     3    14 1   
     6     4     5 1   
     7     4    18 1   
     8     5     6 1   
     9     5    13 1   
    10     5    19 1   
    11     6     7 1   
    12     6    11 1   
    13     6    20 1   
    14     7    14 1   
    15     7    15 1   
    16     7    21 1   
    17     8     9 1   
    18     8    24 1   
    19     8    25 1   
    20     8    34 1   
    21     9    16 1   
    22     9    26 1   
    23     9    27 1   
    24    10    28 1   
    25    10    29 1   
    26    10    30 1   
    27    10    35 1   
    28    11    31 1   
    29    11    35 1   
    30    13    32 1   
    31    15    34 1   
    32    16    33 1   
    33    17    35 2   
    34    22    34 1   
    35    23    34 1   
@<TRIPOS>SUBSTRUCTURE
     1 HTM         1 TEMP              0 ****  ****    0 ROOT
