@<TRIPOS>MOLECULE
HTM
   35    35     1     0     0
SMALL
No Charge or Current Charge


@<TRIPOS>ATOM
      1 O1A          0.2540    -4.1740    -0.4780 o          1 HTM      -0.695000
      2 C1          -0.8710    -3.7780    -0.1890 c          1 HTM       0.725200
      3 C2          -1.0910    -2.2770     0.0700 ce         1 HTM       0.061900
      4 C3          -2.3010    -1.7480     0.4030 c2         1 HTM      -0.435200
      5 C4          -2.5120    -0.2720     0.6380 c6         1 HTM       0.223500
      6 C5          -1.3740     0.5620    -0.0080 c6         1 HTM       0.077700
      7 C6          -0.0380    -0.1020     0.4290 c6         1 HTM       0.374300
      8 C8           3.4350     1.1490    -0.2140 c3         1 HTM      -0.089400
      9 C9           4.8660     0.8100     0.2410 c3         1 HTM       0.161600
     10 C11         -1.2190     4.4210     0.2720 c3         1 HTM      -0.180100
     11 N5          -1.4650     1.9940     0.3800 ns         1 HTM      -0.485900
     12 O1B         -1.8270    -4.5410    -0.0980 o          1 HTM      -0.695000
     13 O4          -3.7790     0.0830     0.0950 oh         1 HTM      -0.657000
     14 O6           0.0340    -1.4640    -0.0420 os         1 HTM      -0.343100
     15 O7           1.0960     0.6260    -0.0780 os         1 HTM      -0.442000
     16 O9           5.7940     1.7100    -0.3720 oh         1 HTM      -0.664000
     17 O10         -0.6730     2.9290    -1.5440 o          1 HTM      -0.601100
     18 H3          -3.1750    -2.3920     0.5030 ha         1 HTM       0.208000
     19 H4          -2.5110    -0.0920     1.7230 h1         1 HTM       0.001700
     20 H5          -1.4540     0.4760    -1.1000 h1         1 HTM       0.124700
     21 H6           0.0030    -0.1030     1.5280 h2         1 HTM       0.009700
     22 H71          2.4240     0.2970     1.5060 h1         1 HTM       0.034700
     23 H72          2.5980    -0.8220     0.1300 h1         1 HTM       0.034700
     24 H81          3.3760     1.0750    -1.3060 hc         1 HTM       0.060700
     25 H82          3.2050     2.1860     0.0580 hc         1 HTM       0.060700
     26 H91          4.9280     0.8890     1.3350 h1         1 HTM       0.016700
     27 H92          5.1010    -0.2260    -0.0380 h1         1 HTM       0.016700
     28 H111        -2.2500     4.5420     0.6250 hc         1 HTM       0.050033
     29 H112        -0.6520     4.4160     1.2100 hc         1 HTM       0.050033
     30 H113        -0.9160     5.2470    -0.3800 hc         1 HTM       0.050033
     31 HN5         -1.8140     2.2170     1.3040 hn         1 HTM       0.295500
     32 HO4         -4.4470    -0.4220     0.6060 ho         1 HTM       0.434000
     33 HO9          6.6900     1.4560    -0.0560 ho         1 HTM       0.434000
     34 C7           2.3820     0.2170     0.4120 c3         1 HTM       0.170600
     35 C10         -1.0800     3.0590    -0.3990 c          1 HTM       0.610100
@<TRIPOS>BOND
     1     1     2 1   
     2     2     3 1   
     3     2    12 1   
     4     3     4 2   
     5     3    14 1   
     6     4     5 1   
     7     4    18 1   
     8     5     6 1   
     9     5    13 1   
    10     5    19 1   
    11     6     7 1   
    12     6    11 1   
    13     6    20 1   
    14     7    14 1   
    15     7    15 1   
    16     7    21 1   
    17     8     9 1   
    18     8    24 1   
    19     8    25 1   
    20     8    34 1   
    21     9    16 1   
    22     9    26 1   
    23     9    27 1   
    24    10    28 1   
    25    10    29 1   
    26    10    30 1   
    27    10    35 1   
    28    11    31 1   
    29    11    35 1   
    30    13    32 1   
    31    15    34 1   
    32    16    33 1   
    33    17    35 2   
    34    22    34 1   
    35    23    34 1   
@<TRIPOS>SUBSTRUCTURE
     1 HTM         1 TEMP              0 ****  ****    0 ROOT
