@<TRIPOS>MOLECULE
HTN
   20    19     1     0     0
SMALL
No Charge or Current Charge


@<TRIPOS>ATOM
      1 O           -4.8700    -3.6430    -1.2640 o          1 HTN      -0.824800
      2 C           -3.6430    -3.6510    -1.2210 c          1 HTN       0.947600
      3 CE          -1.5450    -7.1240    -5.1590 c3         1 HTN       0.106300
      4 N           -2.6750    -1.7210    -2.7680 n8         1 HTN      -0.880800
      5 CA          -2.8120    -3.2190    -2.5080 c3         1 HTN       0.006500
      6 CB          -3.3480    -3.9640    -3.7700 c3         1 HTN       0.078100
      7 OG          -2.9730    -3.1910    -4.9410 oh         1 HTN      -0.645800
      8 CG          -2.8600    -5.4490    -3.8100 c          1 HTN       0.658100
      9 OD1         -3.1170    -6.2610    -2.9300 o          1 HTN      -0.574100
     10 ND2         -2.1080    -5.7970    -4.9120 ns         1 HTN      -0.589900
     11 OXT         -3.0260    -3.8980    -0.1890 o          1 HTN      -0.824800
     12 HE1         -0.9940    -7.1140    -6.1080 h1         1 HTN       0.023367
     13 HE2         -0.8600    -7.3920    -4.3440 h1         1 HTN       0.023367
     14 HE3         -2.3540    -7.8630    -5.2160 h1         1 HTN       0.023367
     15 H           -2.5900    -1.2330    -1.8680 hn         1 HTN       0.316300
     16 H2          -1.7750    -1.5370    -3.2240 hn         1 HTN       0.316300
     17 HA          -1.7880    -3.5730    -2.3280 h1         1 HTN       0.019700
     18 HB3         -4.4430    -4.0110    -3.7190 h1         1 HTN       0.089700
     19 HOG         -2.9180    -2.2720    -4.5840 ho         1 HTN       0.409000
     20 HD22        -1.9550    -5.0540    -5.5860 hn         1 HTN       0.323500
@<TRIPOS>BOND
     1     1     2 1   
     2     2     5 1   
     3     2    11 1   
     4     3    10 1   
     5     3    12 1   
     6     3    13 1   
     7     3    14 1   
     8     4     5 1   
     9     4    15 1   
    10     4    16 1   
    11     5     6 1   
    12     5    17 1   
    13     6     7 1   
    14     6     8 1   
    15     6    18 1   
    16     7    19 1   
    17     8     9 2   
    18     8    10 1   
    19    10    20 1   
@<TRIPOS>SUBSTRUCTURE
     1 HTN         1 TEMP              0 ****  ****    0 ROOT
