@<TRIPOS>MOLECULE
HTN
   20    19     1     0     0
SMALL
bcc


@<TRIPOS>ATOM
      1 O           -4.8280    -3.7750    -1.4750 o          1 HTN      -0.824800
      2 C           -3.6010    -3.7260    -1.2580 c          1 HTN       0.947600
      3 CE          -1.7230    -7.1320    -5.1370 c3         1 HTN       0.106300
      4 N           -2.8940    -1.7840    -2.5430 n8         1 HTN      -0.880800
      5 CA          -2.7040    -3.2300    -2.4240 c3         1 HTN       0.006500
      6 CB          -3.0820    -3.8640    -3.7660 c3         1 HTN       0.078100
      7 OG          -2.4770    -3.1990    -4.8570 oh         1 HTN      -0.645800
      8 CG          -2.6850    -5.3350    -3.8040 c          1 HTN       0.658100
      9 OD1         -2.8850    -6.0720    -2.8460 o          1 HTN      -0.574100
     10 ND2         -2.1340    -5.7630    -4.9450 ns         1 HTN      -0.589900
     11 OXT         -3.0170    -3.9680    -0.1850 o          1 HTN      -0.824800
     12 HE1         -1.3160    -7.2320    -6.1390 h1         1 HTN       0.023367
     13 HE2         -0.9520    -7.4270    -4.4240 h1         1 HTN       0.023367
     14 HE3         -2.5600    -7.8230    -5.0360 h1         1 HTN       0.023367
     15 H           -2.7610    -1.3560    -1.6350 hn         1 HTN       0.316300
     16 H2          -2.1630    -1.3970    -3.1260 hn         1 HTN       0.316300
     17 HA          -1.6600    -3.4890    -2.1930 h1         1 HTN       0.019700
     18 HB3         -4.1760    -3.8300    -3.8510 h1         1 HTN       0.089700
     19 HOG         -3.0450    -2.4700    -5.1220 ho         1 HTN       0.409000
     20 HD22        -1.9900    -5.0950    -5.6840 hn         1 HTN       0.323500
@<TRIPOS>BOND
     1     1     2 1   
     2     2     5 1   
     3     2    11 1   
     4     3    10 1   
     5     3    12 1   
     6     3    13 1   
     7     3    14 1   
     8     4     5 1   
     9     4    15 1   
    10     4    16 1   
    11     5     6 1   
    12     5    17 1   
    13     6     7 1   
    14     6     8 1   
    15     6    18 1   
    16     7    19 1   
    17     8     9 2   
    18     8    10 1   
    19    10    20 1   
@<TRIPOS>SUBSTRUCTURE
     1 HTN         1 TEMP              0 ****  ****    0 ROOT
