@<TRIPOS>MOLECULE
HTO
   26    25     1     0     0
SMALL
No Charge or Current Charge


@<TRIPOS>ATOM
      1 C1          -0.6050    -0.4430    -2.8410 c3         1 HTO       0.129600
      2 O1           0.1790    -0.3780    -4.0480 oh         1 HTO      -0.713000
      3 C2           0.2890    -0.1250    -1.6110 c3         1 HTO       0.138300
      4 O2           0.9300     1.1480    -1.8290 oh         1 HTO      -0.648000
      5 C3          -0.5000    -0.1040    -0.2640 c3         1 HTO       0.139300
      6 O3          -1.3570     1.0480    -0.2470 oh         1 HTO      -0.723000
      7 C4           0.4300    -0.0680     0.9770 c3         1 HTO      -0.106400
      8 C5          -0.3130    -0.1960     2.3290 c3         1 HTO      -0.075400
      9 C6           0.6410    -0.2060     3.5440 c3         1 HTO      -0.075400
     10 C7          -0.0970    -0.3340     4.8900 c3         1 HTO      -0.088100
     11 H11         -1.0340    -1.4470    -2.7180 h1         1 HTO       0.029200
     12 H12         -1.4370     0.2720    -2.8880 h1         1 HTO       0.029200
     13 HO1         -0.4130    -0.6360    -4.7940 ho         1 HTO       0.504000
     14 H2           1.0450    -0.9210    -1.5460 h1         1 HTO       0.084700
     15 HO2          1.1350     1.1550    -2.7930 ho         1 HTO       0.441000
     16 H3          -1.0990    -1.0250    -0.2080 h1         1 HTO       0.070700
     17 HO3         -0.8220     1.7480    -0.6920 ho         1 HTO       0.503000
     18 H41          1.0150     0.8600     0.9720 hc         1 HTO       0.051700
     19 H42          1.1510    -0.8920     0.8980 hc         1 HTO       0.051700
     20 H51         -0.9050    -1.1200     2.3290 hc         1 HTO       0.042700
     21 H52         -1.0200     0.6360     2.4390 hc         1 HTO       0.042700
     22 H61          1.2330     0.7170     3.5490 hc         1 HTO       0.037200
     23 H62          1.3480    -1.0400     3.4450 hc         1 HTO       0.037200
     24 H71          0.6200    -0.3370     5.7200 hc         1 HTO       0.032033
     25 H72         -0.7870     0.5050     5.0360 hc         1 HTO       0.032033
     26 H73         -0.6720    -1.2670     4.9310 hc         1 HTO       0.032033
@<TRIPOS>BOND
     1     1     2 1   
     2     1     3 1   
     3     1    11 1   
     4     1    12 1   
     5     2    13 1   
     6     3     4 1   
     7     3     5 1   
     8     3    14 1   
     9     4    15 1   
    10     5     6 1   
    11     5     7 1   
    12     5    16 1   
    13     6    17 1   
    14     7     8 1   
    15     7    18 1   
    16     7    19 1   
    17     8     9 1   
    18     8    20 1   
    19     8    21 1   
    20     9    10 1   
    21     9    22 1   
    22     9    23 1   
    23    10    24 1   
    24    10    25 1   
    25    10    26 1   
@<TRIPOS>SUBSTRUCTURE
     1 HTO         1 TEMP              0 ****  ****    0 ROOT
