@<TRIPOS>MOLECULE
HTO
   26    25     1     0     0
SMALL
abcg2


@<TRIPOS>ATOM
      1 C1          -0.5500    -0.4760    -2.8050 c3         1 HTO       0.129600
      2 O1           0.2370    -0.6560    -3.9590 oh         1 HTO      -0.713000
      3 C2           0.3580    -0.2080    -1.6180 c3         1 HTO       0.138300
      4 O2           1.1530     0.9450    -1.8070 oh         1 HTO      -0.648000
      5 C3          -0.4430    -0.1390    -0.3120 c3         1 HTO       0.139300
      6 O3          -1.3580     0.9410    -0.3230 oh         1 HTO      -0.723000
      7 C4           0.4640    -0.1080     0.9140 c3         1 HTO      -0.106400
      8 C5          -0.2950    -0.1690     2.2340 c3         1 HTO      -0.075400
      9 C6           0.6280    -0.1740     3.4460 c3         1 HTO      -0.075400
     10 C7          -0.1320    -0.2620     4.7620 c3         1 HTO      -0.088100
     11 H11         -1.1560    -1.3660    -2.5850 h1         1 HTO       0.029200
     12 H12         -1.2520     0.3610    -2.9220 h1         1 HTO       0.029200
     13 HO1         -0.3530    -0.7400    -4.7130 ho         1 HTO       0.504000
     14 H2           1.0570    -1.0480    -1.5270 h1         1 HTO       0.084700
     15 HO2          0.6110     1.6370    -2.1990 ho         1 HTO       0.441000
     16 H3          -1.0570    -1.0460    -0.2570 h1         1 HTO       0.070700
     17 HO3         -0.8660     1.7530    -0.1620 ho         1 HTO       0.503000
     18 H41          1.0900     0.7920     0.8860 hc         1 HTO       0.051700
     19 H42          1.1510    -0.9580     0.8550 hc         1 HTO       0.051700
     20 H51         -0.9190    -1.0700     2.2520 hc         1 HTO       0.042700
     21 H52         -0.9830     0.6790     2.3110 hc         1 HTO       0.042700
     22 H61          1.2440     0.7310     3.4350 hc         1 HTO       0.037200
     23 H62          1.3250    -1.0140     3.3680 hc         1 HTO       0.037200
     24 H71          0.5420    -0.2580     5.6190 hc         1 HTO       0.032033
     25 H72         -0.8190     0.5800     4.8770 hc         1 HTO       0.032033
     26 H73         -0.7250    -1.1770     4.8120 hc         1 HTO       0.032033
@<TRIPOS>BOND
     1     1     2 1   
     2     1     3 1   
     3     1    11 1   
     4     1    12 1   
     5     2    13 1   
     6     3     4 1   
     7     3     5 1   
     8     3    14 1   
     9     4    15 1   
    10     5     6 1   
    11     5     7 1   
    12     5    16 1   
    13     6    17 1   
    14     7     8 1   
    15     7    18 1   
    16     7    19 1   
    17     8     9 1   
    18     8    20 1   
    19     8    21 1   
    20     9    10 1   
    21     9    22 1   
    22     9    23 1   
    23    10    24 1   
    24    10    25 1   
    25    10    26 1   
@<TRIPOS>SUBSTRUCTURE
     1 HTO         1 TEMP              0 ****  ****    0 ROOT
