@<TRIPOS>MOLECULE
HTP
   26    27     1     0     0
SMALL
abcg2


@<TRIPOS>ATOM
      1 C1          -0.0500    -1.3610     0.1690 cc         1 HTP      -0.099300
      2 C2          -1.4830    -0.9990     0.3950 c6         1 HTP       0.202600
      3 C3          -1.7500     0.3690    -0.2350 c6         1 HTP       0.130300
      4 C4          -0.6990     1.3740     0.2530 c6         1 HTP       0.171300
      5 C5           0.7000     1.0080    -0.2480 c6         1 HTP       0.065300
      6 C6           1.7970     1.7690     0.4750 c3         1 HTP       0.142600
      7 C7           0.6320    -2.5720     0.1360 cd         1 HTP       0.240900
      8 N17          2.0290    -1.0640    -0.2320 na         1 HTP       0.007800
      9 N18          1.9150    -2.3360    -0.1070 nd         1 HTP      -0.357800
     10 N1           0.8760    -0.4400    -0.0690 na         1 HTP       0.020000
     11 O2          -2.3190    -1.9670    -0.1630 oh         1 HTP      -0.681000
     12 O3          -2.9990     0.8610     0.1550 oh         1 HTP      -0.642000
     13 O4          -0.9420     2.6570    -0.2420 oh         1 HTP      -0.698000
     14 O6           3.0290     1.4370    -0.1320 oh         1 HTP      -0.694000
     15 H2          -1.6320    -0.9090     1.4790 h1         1 HTP       0.092700
     16 H3          -1.6720     0.2780    -1.3280 h1         1 HTP       0.078700
     17 H4          -0.6960     1.3630     1.3540 h1         1 HTP       0.063700
     18 H5           0.7560     1.1960    -1.3250 h1         1 HTP       0.135700
     19 H61          1.7800     1.5100     1.5390 h1         1 HTP       0.080700
     20 H62          1.5800     2.8360     0.3840 h1         1 HTP       0.080700
     21 H7           0.2520    -3.5690     0.2780 h4         1 HTP       0.105100
     22 HN7          2.8920    -0.5350    -0.3740 hn         1 HTP       0.474000
     23 HO2         -2.6530    -2.5380     0.5350 ho         1 HTP       0.541000
     24 HO3         -3.6770     0.4810    -0.4120 ho         1 HTP       0.489000
     25 HO4         -1.8000     2.9490     0.0840 ho         1 HTP       0.559000
     26 HO6          3.7460     1.6980     0.4560 ho         1 HTP       0.493000
@<TRIPOS>BOND
     1     1     2 1   
     2     1     7 2   
     3     1    10 1   
     4     2     3 1   
     5     2    11 1   
     6     2    15 1   
     7     3     4 1   
     8     3    12 1   
     9     3    16 1   
    10     4     5 1   
    11     4    13 1   
    12     4    17 1   
    13     5     6 1   
    14     5    10 1   
    15     5    18 1   
    16     6    14 1   
    17     6    19 1   
    18     6    20 1   
    19     7     9 1   
    20     7    21 1   
    21     8     9 2   
    22     8    10 1   
    23     8    22 1   
    24    11    23 1   
    25    12    24 1   
    26    13    25 1   
    27    14    26 1   
@<TRIPOS>SUBSTRUCTURE
     1 HTP         1 TEMP              0 ****  ****    0 ROOT
