@<TRIPOS>MOLECULE
HTP
   26    27     1     0     0
SMALL
No Charge or Current Charge


@<TRIPOS>ATOM
      1 C1          -0.0870    -1.3760     0.1810 cc         1 HTP      -0.099300
      2 C2          -1.5270    -0.9870     0.4160 c6         1 HTP       0.202600
      3 C3          -1.7530     0.4280    -0.2100 c6         1 HTP       0.130300
      4 C4          -0.6540     1.4290     0.2780 c6         1 HTP       0.171300
      5 C5           0.7750     0.9870    -0.1850 c6         1 HTP       0.065300
      6 C6           1.8910     1.8490     0.4840 c3         1 HTP       0.142600
      7 C7           0.4620    -2.6270     0.0100 cd         1 HTP       0.240900
      8 N17          2.0740    -1.1820    -0.2710 na         1 HTP       0.007800
      9 N18          1.8210    -2.5310    -0.2350 nd         1 HTP      -0.357800
     10 N1           0.9400    -0.4710     0.0400 na         1 HTP       0.020000
     11 O2          -2.4380    -1.9310    -0.1720 oh         1 HTP      -0.681000
     12 O3          -3.0660     0.9300     0.1160 oh         1 HTP      -0.642000
     13 O4          -0.9680     2.7420    -0.2130 oh         1 HTP      -0.698000
     14 O6           3.2130     1.4510     0.0610 oh         1 HTP      -0.694000
     15 H2          -1.7010    -0.9090     1.5020 h1         1 HTP       0.092700
     16 H3          -1.6560     0.3270    -1.3020 h1         1 HTP       0.078700
     17 H4          -0.6730     1.4320     1.3800 h1         1 HTP       0.063700
     18 H5           0.8410     1.1580    -1.2690 h1         1 HTP       0.135700
     19 H61          1.7940     1.7570     1.5750 h1         1 HTP       0.080700
     20 H62          1.7080     2.9030     0.2290 h1         1 HTP       0.080700
     21 H7          -0.0380    -3.5870     0.0500 h4         1 HTP       0.105100
     22 HN7          2.9870    -0.7220    -0.2430 hn         1 HTP       0.474000
     23 HO2         -2.5280    -2.6870     0.4570 ho         1 HTP       0.541000
     24 HO3         -3.6930     0.1960    -0.0880 ho         1 HTP       0.489000
     25 HO4         -1.9570     2.7890    -0.1740 ho         1 HTP       0.559000
     26 HO6          3.8470     2.1250     0.4070 ho         1 HTP       0.493000
@<TRIPOS>BOND
     1     1     2 1   
     2     1     7 2   
     3     1    10 1   
     4     2     3 1   
     5     2    11 1   
     6     2    15 1   
     7     3     4 1   
     8     3    12 1   
     9     3    16 1   
    10     4     5 1   
    11     4    13 1   
    12     4    17 1   
    13     5     6 1   
    14     5    10 1   
    15     5    18 1   
    16     6    14 1   
    17     6    19 1   
    18     6    20 1   
    19     7     9 1   
    20     7    21 1   
    21     8     9 2   
    22     8    10 1   
    23     8    22 1   
    24    11    23 1   
    25    12    24 1   
    26    13    25 1   
    27    14    26 1   
@<TRIPOS>SUBSTRUCTURE
     1 HTP         1 TEMP              0 ****  ****    0 ROOT
