@<TRIPOS>MOLECULE
HTQ
   41    43     1     0     0
SMALL
bcc


@<TRIPOS>ATOM
      1 C1           2.5500     1.4360    -0.4010 c5         1 HTQ       0.160000
      2 C2           1.6310     0.7700    -1.4240 c6         1 HTQ      -0.074900
      3 C3           1.2250    -0.6480    -1.0390 c6         1 HTQ       0.161100
      4 C4           2.3570    -1.4020    -0.3450 c6         1 HTQ      -0.074900
      5 C5           3.1970    -0.5090     0.5660 c5         1 HTQ       0.160000
      6 C6           2.3690     0.1890     1.6710 c5         1 HTQ      -0.101900
      7 C7           1.9340     1.5150     1.0140 c5         1 HTQ      -0.101900
      8 N8           3.7290     0.5820    -0.2530 n3         1 HTQ      -0.697600
      9 C9           4.8500     1.2600     0.3660 c3         1 HTQ       0.146100
     10 O10          0.0750    -0.5390    -0.1630 os         1 HTQ      -0.410900
     11 C11         -0.7700    -1.5360    -0.0820 c          1 HTQ       0.612100
     12 O12         -0.6910    -2.5820    -0.6800 o          1 HTQ      -0.553000
     13 C13         -1.9260    -1.2240     0.8610 c3         1 HTQ       0.145400
     14 C14         -2.7180    -0.0650     0.2890 ca         1 HTQ      -0.110300
     15 C15         -2.4830     1.2320     0.7310 ca         1 HTQ      -0.104000
     16 C16         -3.6730    -0.2850    -0.6990 ca         1 HTQ      -0.104000
     17 C17         -3.1910     2.2990     0.1960 ca         1 HTQ      -0.131500
     18 C18         -4.3800     0.7810    -1.2370 ca         1 HTQ      -0.131500
     19 C19         -4.1410     2.0750    -0.7910 ca         1 HTQ      -0.120000
     20 O20         -2.7090    -2.3600     1.0600 oh         1 HTQ      -0.580800
     21 H11          2.8420     2.4170    -0.7800 h1         1 HTQ       0.064200
     22 H21          0.7390     1.3740    -1.6060 hc         1 HTQ       0.061700
     23 H22          2.1700     0.7130    -2.3730 hc         1 HTQ       0.061700
     24 H31          0.9110    -1.1910    -1.9320 h1         1 HTQ       0.065700
     25 H41          3.0090    -1.8070    -1.1220 hc         1 HTQ       0.061700
     26 H42          1.9680    -2.2610     0.2060 hc         1 HTQ       0.061700
     27 H51          4.0170    -1.1020     0.9780 h1         1 HTQ       0.064200
     28 H61          1.5300    -0.4170     2.0110 hc         1 HTQ       0.048950
     29 H62          2.9920     0.3770     2.5470 hc         1 HTQ       0.048950
     30 H71          0.8530     1.6500     0.9920 hc         1 HTQ       0.048950
     31 H72          2.3450     2.3690     1.5550 hc         1 HTQ       0.048950
     32 H91          5.6950     0.5740     0.4430 h1         1 HTQ       0.032367
     33 H92          5.1610     2.0970    -0.2610 h1         1 HTQ       0.032367
     34 H93          4.6560     1.6580     1.3720 h1         1 HTQ       0.032367
     35 H131        -1.4940    -0.9120     1.8200 h1         1 HTQ       0.086700
     36 H151        -1.7460     1.4090     1.5070 ha         1 HTQ       0.134000
     37 H161        -3.8740    -1.2890    -1.0520 ha         1 HTQ       0.134000
     38 H171        -3.0050     3.3030     0.5540 ha         1 HTQ       0.131500
     39 H181        -5.1220     0.6020    -2.0040 ha         1 HTQ       0.131500
     40 H191        -4.7000     2.9040    -1.2070 ha         1 HTQ       0.131000
     41 H201        -2.4720    -3.0170     0.3920 ho         1 HTQ       0.432000
@<TRIPOS>BOND
     1     1     2 1   
     2     1     7 1   
     3     1     8 1   
     4     1    21 1   
     5     2     3 1   
     6     2    22 1   
     7     2    23 1   
     8     3     4 1   
     9     3    10 1   
    10     3    24 1   
    11     4     5 1   
    12     4    25 1   
    13     4    26 1   
    14     5     6 1   
    15     5     8 1   
    16     5    27 1   
    17     6     7 1   
    18     6    28 1   
    19     6    29 1   
    20     7    30 1   
    21     7    31 1   
    22     8     9 1   
    23     9    32 1   
    24     9    33 1   
    25     9    34 1   
    26    10    11 1   
    27    11    12 2   
    28    11    13 1   
    29    13    14 1   
    30    13    20 1   
    31    13    35 1   
    32    14    15 ar  
    33    14    16 ar  
    34    15    17 ar  
    35    15    36 1   
    36    16    18 ar  
    37    16    37 1   
    38    17    19 ar  
    39    17    38 1   
    40    18    19 ar  
    41    18    39 1   
    42    19    40 1   
    43    20    41 1   
@<TRIPOS>SUBSTRUCTURE
     1 HTQ         1 TEMP              0 ****  ****    0 ROOT
