@<TRIPOS>MOLECULE
HTQ
   41    43     1     0     0
SMALL
No Charge or Current Charge


@<TRIPOS>ATOM
      1 C1           2.9620     1.4640    -0.3280 c5         1 HTQ       0.160000
      2 C2           1.9490     1.0140    -1.4220 c6         1 HTQ      -0.074900
      3 C3           1.2910    -0.3530    -1.1220 c6         1 HTQ       0.184300
      4 C4           2.3390    -1.3480    -0.5520 c6         1 HTQ      -0.074900
      5 C5           3.3170    -0.6910     0.4660 c5         1 HTQ       0.160000
      6 C6           2.6390     0.0460     1.6660 c5         1 HTQ      -0.101900
      7 C7           2.4020     1.5020     1.1310 c5         1 HTQ      -0.101900
      8 N8           4.0180     0.4230    -0.2250 n3         1 HTQ      -0.697600
      9 C9           5.2850     0.8650     0.4100 c3         1 HTQ       0.146100
     10 O10          0.1650    -0.1780    -0.2350 os         1 HTQ      -0.434100
     11 C11         -0.7690    -1.1670    -0.0610 c          1 HTQ       0.563100
     12 O12         -0.7780    -2.2230    -0.6870 o          1 HTQ      -0.504000
     13 C13         -1.8660    -0.7520     0.9670 c3         1 HTQ       0.168600
     14 C14         -2.9670     0.0770     0.3040 ca         1 HTQ      -0.110300
     15 C15         -3.2640     1.3690     0.7850 ca         1 HTQ      -0.086000
     16 C16         -3.6940    -0.4310    -0.7960 ca         1 HTQ      -0.086000
     17 C17         -4.2690     2.1410     0.1770 ca         1 HTQ      -0.113500
     18 C18         -4.6980     0.3430    -1.4020 ca         1 HTQ      -0.113500
     19 C19         -4.9870     1.6290    -0.9160 ca         1 HTQ      -0.102000
     20 O20         -2.4520    -1.8890     1.6470 oh         1 HTQ      -0.643000
     21 H11          3.3700     2.4410    -0.6260 h1         1 HTQ       0.064200
     22 H21          1.1730     1.7810    -1.5490 hc         1 HTQ       0.061700
     23 H22          2.4760     0.9550    -2.3840 hc         1 HTQ       0.061700
     24 H31          0.9000    -0.7530    -2.0700 h1         1 HTQ       0.065700
     25 H41          2.9260    -1.7590    -1.3840 hc         1 HTQ       0.061700
     26 H42          1.8440    -2.2070    -0.0840 hc         1 HTQ       0.061700
     27 H51          4.0140    -1.4680     0.8140 h1         1 HTQ       0.064200
     28 H61          1.7120    -0.4440     1.9830 hc         1 HTQ       0.048950
     29 H62          3.2990     0.0570     2.5410 hc         1 HTQ       0.048950
     30 H71          1.3470     1.7960     1.1630 hc         1 HTQ       0.048950
     31 H72          2.9460     2.2320     1.7410 hc         1 HTQ       0.048950
     32 H91          6.0070     0.0380     0.4380 h1         1 HTQ       0.032367
     33 H92          5.7350     1.6840    -0.1670 h1         1 HTQ       0.032367
     34 H93          5.1320     1.2170     1.4380 h1         1 HTQ       0.032367
     35 H131        -1.3520    -0.1170     1.7020 h1         1 HTQ       0.086700
     36 H151        -2.7150     1.7780     1.6310 ha         1 HTQ       0.116000
     37 H161        -3.4820    -1.4240    -1.1850 ha         1 HTQ       0.116000
     38 H171        -4.4910     3.1370     0.5550 ha         1 HTQ       0.113500
     39 H181        -5.2540    -0.0540    -2.2490 ha         1 HTQ       0.113500
     40 H191        -5.7650     2.2280    -1.3860 ha         1 HTQ       0.113000
     41 H201        -2.7350    -2.5210     0.9490 ho         1 HTQ       0.471000
@<TRIPOS>BOND
     1     1     2 1   
     2     1     7 1   
     3     1     8 1   
     4     1    21 1   
     5     2     3 1   
     6     2    22 1   
     7     2    23 1   
     8     3     4 1   
     9     3    10 1   
    10     3    24 1   
    11     4     5 1   
    12     4    25 1   
    13     4    26 1   
    14     5     6 1   
    15     5     8 1   
    16     5    27 1   
    17     6     7 1   
    18     6    28 1   
    19     6    29 1   
    20     7    30 1   
    21     7    31 1   
    22     8     9 1   
    23     9    32 1   
    24     9    33 1   
    25     9    34 1   
    26    10    11 1   
    27    11    12 2   
    28    11    13 1   
    29    13    14 1   
    30    13    20 1   
    31    13    35 1   
    32    14    15 ar  
    33    14    16 ar  
    34    15    17 ar  
    35    15    36 1   
    36    16    18 ar  
    37    16    37 1   
    38    17    19 ar  
    39    17    38 1   
    40    18    19 ar  
    41    18    39 1   
    42    19    40 1   
    43    20    41 1   
@<TRIPOS>SUBSTRUCTURE
     1 HTQ         1 TEMP              0 ****  ****    0 ROOT
