@<TRIPOS>MOLECULE
HTR
   27    28     1     0     0
SMALL
bcc


@<TRIPOS>ATOM
      1 N           29.7630    21.8110    79.5670 n8         1 HTR      -0.869800
      2 CA          29.8680    23.2400    79.8370 c3         1 HTR       0.028500
      3 CB          31.0660    23.7990    79.0640 c3         1 HTR       0.217300
      4 OH          31.0940    25.1890    79.3230 oh         1 HTR      -0.574800
      5 CG          32.3580    23.1460    79.4500 cc         1 HTR      -0.148400
      6 CD1         33.1630    23.4980    80.4980 cd         1 HTR      -0.124100
      7 NE1         34.2560    22.6790    80.5460 na         1 HTR      -0.187400
      8 CE2         34.1920    21.7770    79.5250 ca         1 HTR      -0.058200
      9 CZ2         35.0730    20.7600    79.1600 ca         1 HTR      -0.166000
     10 CH2         34.7470    20.0010    78.0520 ca         1 HTR      -0.119000
     11 CZ3         33.5710    20.2450    77.3220 ca         1 HTR      -0.184000
     12 CE3         32.6980    21.2490    77.6920 ca         1 HTR      -0.050000
     13 CD2         33.0030    22.0390    78.8080 ca         1 HTR      -0.085800
     14 C           28.5650    23.9550    79.3950 c          1 HTR       0.941600
     15 O           27.9140    24.5290    80.2900 o          1 HTR      -0.829300
     16 OXT         28.2750    23.8810    78.1850 o          1 HTR      -0.829300
     17 H           28.9320    21.4430    80.0150 hn         1 HTR       0.314800
     18 H2          30.5390    21.3310    80.0070 hn         1 HTR       0.314800
     19 HA          30.0390    23.4550    80.9030 h1         1 HTR       0.011700
     20 HB          30.8790    23.5980    78.0000 h1         1 HTR       0.069700
     21 HH          31.8550    25.5610    78.8660 ho         1 HTR       0.373000
     22 HD1         33.0430    24.2870    81.2230 h4         1 HTR       0.166000
     23 HE1         35.0050    22.7550    81.2140 hn         1 HTR       0.283700
     24 HZ2         35.9800    20.5720    79.7210 ha         1 HTR       0.115000
     25 HH2         35.4100    19.2050    77.7400 ha         1 HTR       0.111000
     26 HZ3         33.3480    19.6310    76.4600 ha         1 HTR       0.119000
     27 HE3         31.7900    21.4210    77.1270 ha         1 HTR       0.157000
@<TRIPOS>BOND
     1     1     2 1   
     2     1    17 1   
     3     1    18 1   
     4     2     3 1   
     5     2    14 1   
     6     2    19 1   
     7     3     4 1   
     8     3     5 1   
     9     3    20 1   
    10     4    21 1   
    11     5     6 2   
    12     5    13 1   
    13     6     7 1   
    14     6    22 1   
    15     7     8 1   
    16     7    23 1   
    17     8     9 ar  
    18     8    13 ar  
    19     9    10 ar  
    20     9    24 1   
    21    10    11 ar  
    22    10    25 1   
    23    11    12 ar  
    24    11    26 1   
    25    12    13 ar  
    26    12    27 1   
    27    14    15 1   
    28    14    16 1   
@<TRIPOS>SUBSTRUCTURE
     1 HTR         1 TEMP              0 ****  ****    0 ROOT
