@<TRIPOS>MOLECULE
HTR
   27    28     1     0     0
SMALL
No Charge or Current Charge


@<TRIPOS>ATOM
      1 N           29.7740    21.6890    79.6410 n8         1 HTR      -0.869800
      2 CA          29.8230    23.2050    79.7480 c3         1 HTR       0.028500
      3 CB          31.0640    23.8110    79.0280 c3         1 HTR       0.217300
      4 OH          31.1370    25.2210    79.2710 oh         1 HTR      -0.574800
      5 CG          32.3700    23.1740    79.4530 cc         1 HTR      -0.148400
      6 CD1         33.1790    23.5310    80.5320 cd         1 HTR      -0.124100
      7 NE1         34.3100    22.6840    80.5850 na         1 HTR      -0.187400
      8 CE2         34.1770    21.8040    79.5280 ca         1 HTR      -0.058200
      9 CZ2         35.0470    20.7690    79.1600 ca         1 HTR      -0.166000
     10 CH2         34.7110    19.9850    78.0360 ca         1 HTR      -0.119000
     11 CZ3         33.5250    20.2490    77.3120 ca         1 HTR      -0.184000
     12 CE3         32.6670    21.2990    77.7050 ca         1 HTR      -0.050000
     13 CD2         33.0310    22.0600    78.8270 ca         1 HTR      -0.085800
     14 C           28.5140    23.9910    79.3180 c          1 HTR       0.941600
     15 O           27.7780    24.4300    80.1990 o          1 HTR      -0.829300
     16 OXT         28.1980    24.0300    78.1300 o          1 HTR      -0.829300
     17 H           29.0970    21.3220    80.3170 hn         1 HTR       0.314800
     18 H2          30.6790    21.3100    79.9390 hn         1 HTR       0.314800
     19 HA          29.9630    23.4080    80.8190 h1         1 HTR       0.011700
     20 HB          30.9430    23.6380    77.9490 h1         1 HTR       0.069700
     21 HH          31.9990    25.5160    78.9140 ho         1 HTR       0.373000
     22 HD1         33.0300    24.3220    81.2610 h4         1 HTR       0.166000
     23 HE1         35.0640    22.7140    81.2630 hn         1 HTR       0.283700
     24 HZ2         35.9560    20.5740    79.7250 ha         1 HTR       0.115000
     25 HH2         35.3670    19.1740    77.7260 ha         1 HTR       0.111000
     26 HZ3         33.2710    19.6390    76.4470 ha         1 HTR       0.119000
     27 HE3         31.7510    21.5070    77.1570 ha         1 HTR       0.157000
@<TRIPOS>BOND
     1     1     2 1   
     2     1    17 1   
     3     1    18 1   
     4     2     3 1   
     5     2    14 1   
     6     2    19 1   
     7     3     4 1   
     8     3     5 1   
     9     3    20 1   
    10     4    21 1   
    11     5     6 2   
    12     5    13 1   
    13     6     7 1   
    14     6    22 1   
    15     7     8 1   
    16     7    23 1   
    17     8     9 ar  
    18     8    13 ar  
    19     9    10 ar  
    20     9    24 1   
    21    10    11 ar  
    22    10    25 1   
    23    11    12 ar  
    24    11    26 1   
    25    12    13 ar  
    26    12    27 1   
    27    14    15 1   
    28    14    16 1   
@<TRIPOS>SUBSTRUCTURE
     1 HTR         1 TEMP              0 ****  ****    0 ROOT
