@<TRIPOS>MOLECULE
HTS
   14    14     1     0     0
SMALL
No Charge or Current Charge


@<TRIPOS>ATOM
      1 C6           1.4180    -1.0180     0.1840 ca         1 HTS      -0.204000
      2 C1           0.0450    -0.7380     0.2760 ca         1 HTS       0.148100
      3 C2          -0.4210     0.5880     0.1710 ca         1 HTS      -0.128000
      4 C3           0.5050     1.6300    -0.0280 ca         1 HTS      -0.043000
      5 C4           1.8790     1.3490    -0.1200 ca         1 HTS      -0.148000
      6 C5           2.3380     0.0260    -0.0140 ca         1 HTS      -0.059000
      7 O1          -0.8400    -1.7590     0.4690 oh         1 HTS      -0.530100
      8 S1          -2.1650     0.9560     0.2870 sh         1 HTS      -0.194800
      9 H6           1.7800    -2.0400     0.2650 ha         1 HTS       0.114000
     10 H3           0.1570     2.6570    -0.1100 ha         1 HTS       0.128000
     11 H4           2.5890     2.1590    -0.2730 ha         1 HTS       0.120000
     12 H5           3.4020    -0.1900    -0.0860 ha         1 HTS       0.115000
     13 HO1         -0.3350    -2.5990     0.5170 ho         1 HTS       0.470000
     14 HS1         -2.5460    -0.3340     0.4640 hs         1 HTS       0.212800
@<TRIPOS>BOND
     1     1     2 ar  
     2     1     6 ar  
     3     1     9 1   
     4     2     3 ar  
     5     2     7 1   
     6     3     4 ar  
     7     3     8 1   
     8     4     5 ar  
     9     4    10 1   
    10     5     6 ar  
    11     5    11 1   
    12     6    12 1   
    13     7    13 1   
    14     8    14 1   
@<TRIPOS>SUBSTRUCTURE
     1 HTS         1 TEMP              0 ****  ****    0 ROOT
