@<TRIPOS>MOLECULE
HTS
   14    14     1     0     0
SMALL
bcc


@<TRIPOS>ATOM
      1 C6           1.4540    -1.0200     0.1710 ca         1 HTS      -0.222000
      2 C1           0.0800    -0.8000     0.1780 ca         1 HTS       0.148100
      3 C2          -0.4100     0.5080     0.0810 ca         1 HTS      -0.001100
      4 C3           0.4830     1.5650    -0.0480 ca         1 HTS      -0.061000
      5 C4           1.8530     1.3410    -0.0830 ca         1 HTS      -0.166000
      6 C5           2.3330     0.0440     0.0340 ca         1 HTS      -0.077000
      7 O1          -0.8130    -1.7970     0.2870 oh         1 HTS      -0.491100
      8 S1          -2.1480     0.8340     0.0100 sh         1 HTS      -0.321700
      9 H6           1.8370    -2.0310     0.2600 ha         1 HTS       0.132000
     10 H3           0.0990     2.5750    -0.1190 ha         1 HTS       0.146000
     11 H4           2.5350     2.1730    -0.1890 ha         1 HTS       0.138000
     12 H5           3.3980    -0.1460     0.0210 ha         1 HTS       0.133000
     13 HO1         -0.3610    -2.6470     0.3470 ho         1 HTS       0.431000
     14 HS1         -2.5350     0.0880     1.0520 hs         1 HTS       0.212800
@<TRIPOS>BOND
     1     1     2 ar  
     2     1     6 ar  
     3     1     9 1   
     4     2     3 ar  
     5     2     7 1   
     6     3     4 ar  
     7     3     8 1   
     8     4     5 ar  
     9     4    10 1   
    10     5     6 ar  
    11     5    11 1   
    12     6    12 1   
    13     7    13 1   
    14     8    14 1   
@<TRIPOS>SUBSTRUCTURE
     1 HTS         1 TEMP              0 ****  ****    0 ROOT
