@<TRIPOS>MOLECULE
HTT
   52    56     1     0     0
SMALL
bcc


@<TRIPOS>ATOM
      1 CL8          4.2170     2.3610     0.6290 cl         1 HTT      -0.094400
      2 C4           2.6150     1.9240     0.1810 cc         1 HTT       0.007200
      3 C5           1.7040     2.8750    -0.1810 cd         1 HTT      -0.071300
      4 C6           1.8670     4.3410    -0.3760 c3         1 HTT      -0.018200
      5 C7           2.2360     4.7000    -1.8160 c3         1 HTT      -0.089100
      6 N1           0.5110     2.2400    -0.4080 na         1 HTT      -0.255100
      7 C3           1.9690     0.6390     0.1780 ca         1 HTT      -0.365400
      8 C9           2.2240    -0.7420     0.4290 ca         1 HTT       0.789200
      9 N13          3.4160    -1.3100     0.6610 nh         1 HTT      -0.776300
     10 C17          3.5100    -2.7400     0.9650 c5         1 HTT       0.224800
     11 C16          5.0100    -2.9780     1.0640 c5         1 HTT      -0.141400
     12 C15          5.5860    -1.9730     0.0620 c5         1 HTT       0.142500
     13 N18          5.4830    -2.3600    -1.3370 n8         1 HTT      -0.883800
     14 C14          4.7230    -0.7470     0.3440 c5         1 HTT       0.222800
     15 N10          1.1820    -1.5850     0.4380 nb         1 HTT      -0.833000
     16 C11         -0.0240    -1.1500     0.1190 ca         1 HTT       0.824300
     17 N12         -0.3850     0.0570    -0.2300 nb         1 HTT      -0.764000
     18 C2           0.6330     0.9180    -0.1730 ca         1 HTT       0.487800
     19 S19         -1.2290    -2.4490     0.1740 ss         1 HTT      -0.226200
     20 C20         -2.7230    -1.5800    -0.1850 ca         1 HTT      -0.109400
     21 C25         -3.1960    -1.5100    -1.4860 ca         1 HTT       0.444200
     22 N24         -4.3310    -0.8990    -1.7920 nb         1 HTT      -0.670000
     23 C23         -5.0550    -0.3350    -0.8390 ca         1 HTT       0.416600
     24 C26         -6.3580     0.3050    -1.2330 c6         1 HTT      -0.082500
     25 C27         -6.7870     1.3080    -0.2050 c2         1 HTT      -0.228200
     26 C28         -6.3420     1.2500     1.0460 c2         1 HTT       0.036000
     27 N29         -5.4440     0.2670     1.4620 nh         1 HTT      -0.307300
     28 O30         -4.8190     0.5330     2.6580 oh         1 HTT      -0.374300
     29 C22         -4.6460    -0.3480     0.5060 ca         1 HTT       0.003300
     30 C21         -3.4560    -0.9870     0.8310 ca         1 HTT      -0.063000
     31 H1           0.9430     4.8480    -0.0910 hc         1 HTT       0.057700
     32 H2           2.6390     4.7060     0.3020 hc         1 HTT       0.057700
     33 H3           2.3420     5.7800    -1.9240 hc         1 HTT       0.040033
     34 H4           3.1790     4.2370    -2.1030 hc         1 HTT       0.040033
     35 H5           1.4700     4.3670    -2.5170 hc         1 HTT       0.040033
     36 H6          -0.3510     2.6970    -0.6610 hn         1 HTT       0.314700
     37 H7           2.9770    -2.9840     1.8840 h1         1 HTT       0.061700
     38 H8           3.0600    -3.3350     0.1660 h1         1 HTT       0.061700
     39 H9           5.3690    -2.7500     2.0710 hc         1 HTT       0.059200
     40 H10          5.2800    -4.0090     0.8370 hc         1 HTT       0.059200
     41 H11          6.6330    -1.7510     0.2730 h1         1 HTT       0.077700
     42 H12          6.0230    -3.2020    -1.4940 hn         1 HTT       0.345300
     43 H13          4.5260    -2.6000    -1.5710 hn         1 HTT       0.345300
     44 H15          4.6730    -0.0870    -0.5220 h1         1 HTT       0.070200
     45 H16          5.1280    -0.1860     1.1880 h1         1 HTT       0.070200
     46 H17         -2.6400    -1.9600    -2.3010 h4         1 HTT       0.034100
     47 H18         -6.2490     0.7690    -2.2150 hc         1 HTT       0.069700
     48 H19         -7.5030     2.0720    -0.4720 ha         1 HTT       0.145000
     49 H20         -6.6590     1.9320     1.8220 h4         1 HTT       0.155000
     50 H21         -5.1930    -0.0960     3.2880 ho         1 HTT       0.420000
     51 H22         -3.1010    -1.0260     1.8510 ha         1 HTT       0.159000
     52 H14         -7.1230    -0.4730    -1.3550 hc         1 HTT       0.069700
@<TRIPOS>BOND
     1     1     2 1   
     2     2     3 2   
     3     2     7 1   
     4     3     4 1   
     5     3     6 1   
     6     4     5 1   
     7     4    31 1   
     8     4    32 1   
     9     5    33 1   
    10     5    34 1   
    11     5    35 1   
    12     6    18 1   
    13     6    36 1   
    14     7     8 ar  
    15     7    18 ar  
    16     8     9 1   
    17     8    15 ar  
    18     9    10 1   
    19     9    14 1   
    20    10    11 1   
    21    10    37 1   
    22    10    38 1   
    23    11    12 1   
    24    11    39 1   
    25    11    40 1   
    26    12    13 1   
    27    12    14 1   
    28    12    41 1   
    29    13    42 1   
    30    13    43 1   
    31    14    44 1   
    32    14    45 1   
    33    15    16 ar  
    34    16    17 ar  
    35    16    19 1   
    36    17    18 ar  
    37    19    20 1   
    38    20    21 ar  
    39    20    30 ar  
    40    21    22 ar  
    41    21    46 1   
    42    22    23 ar  
    43    23    24 1   
    44    23    29 ar  
    45    24    25 1   
    46    24    47 1   
    47    24    52 1   
    48    25    26 2   
    49    25    48 1   
    50    26    27 1   
    51    26    49 1   
    52    27    28 1   
    53    27    29 1   
    54    28    50 1   
    55    29    30 ar  
    56    30    51 1   
@<TRIPOS>SUBSTRUCTURE
     1 HTT         1 TEMP              0 ****  ****    0 ROOT
