@<TRIPOS>MOLECULE
HTT
   52    56     1     0     0
SMALL
No Charge or Current Charge


@<TRIPOS>ATOM
      1 Cl8          3.8010     2.1680     1.1160 cl         1 HTT      -0.170000
      2 C4           2.4250     2.0410     0.0600 cc         1 HTT       0.082800
      3 C5           1.7160     3.0990    -0.4860 cd         1 HTT      -0.071300
      4 C6           1.9820     4.5770    -0.3570 c3         1 HTT      -0.018200
      5 C7           2.7990     5.1280    -1.5390 c3         1 HTT      -0.089100
      6 N1           0.6160     2.5820    -1.2050 na         1 HTT      -0.305400
      7 C3           1.7490     0.8360    -0.3360 ca         1 HTT      -0.234800
      8 C9           1.9910    -0.5260    -0.0870 ca         1 HTT       0.460900
      9 N13          3.1110    -1.0150     0.6050 nh         1 HTT      -0.776300
     10 C17          3.0080    -2.0750     1.6430 c5         1 HTT       0.224800
     11 C16          4.4970    -2.4570     1.8610 c5         1 HTT      -0.141400
     12 C15          5.0830    -2.3530     0.4300 c5         1 HTT       0.142500
     13 N18          4.6840    -3.5020    -0.4180 n8         1 HTT      -0.994200
     14 C14          4.4740    -0.9760    -0.0040 c5         1 HTT       0.222800
     15 N10          1.1320    -1.4520    -0.5540 nb         1 HTT      -0.307000
     16 C11          0.0710    -1.0060    -1.2620 ca         1 HTT       0.298300
     17 N12         -0.2040     0.2860    -1.5550 nb         1 HTT      -0.238000
     18 C2           0.6530     1.2030    -1.0770 ca         1 HTT       0.159500
     19 S19         -1.0610    -2.2500    -1.8740 ss         1 HTT      -0.099300
     20 C20         -2.6290    -1.5060    -1.4240 ca         1 HTT      -0.171000
     21 C25         -3.6240    -1.3050    -2.4020 ca         1 HTT       0.378900
     22 N24         -4.8230    -0.7430    -2.1250 nb         1 HTT      -0.670000
     23 C23         -5.0540    -0.3660    -0.8410 ca         1 HTT       0.351300
     24 C26         -6.4180     0.2740    -0.5670 c6         1 HTT      -0.082500
     25 C27         -6.5780     0.7540     0.8760 c2         1 HTT      -0.278200
     26 C28         -5.6460     0.5640     1.8260 c2         1 HTT      -0.014000
     27 N29         -4.4580    -0.1050     1.5430 nh         1 HTT      -0.445700
     28 O30         -3.5120    -0.1760     2.5990 oh         1 HTT      -0.413300
     29 C22         -4.1220    -0.5280     0.2190 ca         1 HTT       0.207000
     30 C21         -2.8810    -1.1160    -0.0940 ca         1 HTT      -0.045000
     31 H1           1.0340     5.1250    -0.2920 hc         1 HTT       0.057700
     32 H2           2.5190     4.7860     0.5770 hc         1 HTT       0.057700
     33 H3           2.9770     6.2030    -1.4150 hc         1 HTT       0.040033
     34 H4           3.7710     4.6240    -1.6040 hc         1 HTT       0.040033
     35 H5           2.2650     4.9740    -2.4840 hc         1 HTT       0.040033
     36 H6          -0.0850     3.1150    -1.7080 hn         1 HTT       0.365000
     37 H7           2.5430    -1.7090     2.5690 h1         1 HTT       0.061700
     38 H8           2.4270    -2.9380     1.2860 h1         1 HTT       0.061700
     39 H9           4.9870    -1.7440     2.5360 hc         1 HTT       0.059200
     40 H10          4.6130    -3.4510     2.3070 hc         1 HTT       0.059200
     41 H11          6.1830    -2.3180     0.4510 h1         1 HTT       0.077700
     42 H12          4.8050    -4.3720     0.1140 hn         1 HTT       0.400500
     43 H13          3.6690    -3.4470    -0.5640 hn         1 HTT       0.400500
     44 H15          4.4480    -0.8700    -1.0980 h1         1 HTT       0.070200
     45 H16          5.0710    -0.1480     0.3990 h1         1 HTT       0.070200
     46 H17         -3.4530    -1.5990    -3.4370 h4         1 HTT       0.034100
     47 H18         -6.5610     1.1230    -1.2490 hc         1 HTT       0.069700
     48 H19         -7.5050     1.2810     1.1140 ha         1 HTT       0.195000
     49 H20         -5.7700     0.9200     2.8530 h4         1 HTT       0.205000
     50 H21         -3.8660    -0.9210     3.1400 ho         1 HTT       0.459000
     51 H22         -2.1300    -1.2650     0.6760 ha         1 HTT       0.141000
     52 H14         -7.2110    -0.4500    -0.8020 hc         1 HTT       0.069700
@<TRIPOS>BOND
     1     1     2 1   
     2     2     3 2   
     3     2     7 1   
     4     3     4 1   
     5     3     6 1   
     6     4     5 1   
     7     4    31 1   
     8     4    32 1   
     9     5    33 1   
    10     5    34 1   
    11     5    35 1   
    12     6    18 1   
    13     6    36 1   
    14     7     8 ar  
    15     7    18 ar  
    16     8     9 1   
    17     8    15 ar  
    18     9    10 1   
    19     9    14 1   
    20    10    11 1   
    21    10    37 1   
    22    10    38 1   
    23    11    12 1   
    24    11    39 1   
    25    11    40 1   
    26    12    13 1   
    27    12    14 1   
    28    12    41 1   
    29    13    42 1   
    30    13    43 1   
    31    14    44 1   
    32    14    45 1   
    33    15    16 ar  
    34    16    17 ar  
    35    16    19 1   
    36    17    18 ar  
    37    19    20 1   
    38    20    21 ar  
    39    20    30 ar  
    40    21    22 ar  
    41    21    46 1   
    42    22    23 ar  
    43    23    24 1   
    44    23    29 ar  
    45    24    25 1   
    46    24    47 1   
    47    24    52 1   
    48    25    26 2   
    49    25    48 1   
    50    26    27 1   
    51    26    49 1   
    52    27    28 1   
    53    27    29 1   
    54    28    50 1   
    55    29    30 ar  
    56    30    51 1   
@<TRIPOS>SUBSTRUCTURE
     1 HTT         1 TEMP              0 ****  ****    0 ROOT
