@<TRIPOS>MOLECULE
HTU
   14    14     1     0     0
SMALL
abcg2


@<TRIPOS>ATOM
      1 C1          -1.6030    -4.7980     8.0960 ca         1 HTU      -0.163000
      2 O1          -1.4140    -6.8120     9.2890 oh         1 HTU      -0.531100
      3 S1          -3.4760    -3.6750     4.7160 sh         1 HTU      -0.182800
      4 C2          -2.0930    -4.0670     7.0270 ca         1 HTU      -0.067500
      5 C3          -2.9030    -4.6670     6.0650 ca         1 HTU      -0.113000
      6 C4          -3.2130    -6.0160     6.1990 ca         1 HTU      -0.067500
      7 C5          -2.7300    -6.7500     7.2720 ca         1 HTU      -0.163000
      8 C6          -1.9180    -6.1480     8.2290 ca         1 HTU       0.137100
      9 H1          -0.9740    -4.3170     8.8340 ha         1 HTU       0.122500
     10 H2          -1.8380    -3.0170     6.9490 ha         1 HTU       0.119500
     11 H4          -3.8380    -6.5100     5.4660 ha         1 HTU       0.119500
     12 H5          -2.9900    -7.7990     7.3560 ha         1 HTU       0.122500
     13 HO1         -1.6890    -7.7360     9.2700 ho         1 HTU       0.465000
     14 HS1         -4.3010    -4.5740     4.1700 hs         1 HTU       0.202800
@<TRIPOS>BOND
     1     1     4 ar  
     2     1     8 ar  
     3     1     9 1   
     4     2     8 1   
     5     2    13 1   
     6     3     5 1   
     7     3    14 1   
     8     4     5 ar  
     9     4    10 1   
    10     5     6 ar  
    11     6     7 ar  
    12     6    11 1   
    13     7     8 ar  
    14     7    12 1   
@<TRIPOS>SUBSTRUCTURE
     1 HTU         1 TEMP              0 ****  ****    0 ROOT
