@<TRIPOS>MOLECULE
HTU
   14    14     1     0     0
SMALL
No Charge or Current Charge


@<TRIPOS>ATOM
      1 C1          -1.5780    -4.7780     8.1160 ca         1 HTU      -0.163000
      2 O1          -1.4100    -6.8560     9.2870 oh         1 HTU      -0.531100
      3 S1          -3.5440    -3.6780     4.7110 sh         1 HTU      -0.182800
      4 C2          -2.0810    -4.0280     7.0380 ca         1 HTU      -0.067500
      5 C3          -2.9100    -4.6350     6.0770 ca         1 HTU      -0.113000
      6 C4          -3.2320    -6.0000     6.2050 ca         1 HTU      -0.067500
      7 C5          -2.7290    -6.7500     7.2830 ca         1 HTU      -0.163000
      8 C6          -1.9020    -6.1370     8.2390 ca         1 HTU       0.137100
      9 H1          -0.9380    -4.3030     8.8550 ha         1 HTU       0.122500
     10 H2          -1.8260    -2.9740     6.9480 ha         1 HTU       0.119500
     11 H4          -3.8720    -6.4810     5.4680 ha         1 HTU       0.119500
     12 H5          -2.9860    -7.8030     7.3690 ha         1 HTU       0.122500
     13 HO1         -1.7360    -7.7780     9.2130 ho         1 HTU       0.465000
     14 HS1         -4.2370    -4.6850     4.1290 hs         1 HTU       0.202800
@<TRIPOS>BOND
     1     1     4 ar  
     2     1     8 ar  
     3     1     9 1   
     4     2     8 1   
     5     2    13 1   
     6     3     5 1   
     7     3    14 1   
     8     4     5 ar  
     9     4    10 1   
    10     5     6 ar  
    11     6     7 ar  
    12     6    11 1   
    13     7     8 ar  
    14     7    12 1   
@<TRIPOS>SUBSTRUCTURE
     1 HTU         1 TEMP              0 ****  ****    0 ROOT
