@<TRIPOS>MOLECULE
HTW
   44    47     1     0     0
SMALL
No Charge or Current Charge


@<TRIPOS>ATOM
      1 C2          -1.9380    -1.1090     1.1900 c6         1 HTW       0.173300
      2 C3          -3.4460    -1.2110     0.8340 c6         1 HTW       0.127300
      3 C4          -4.0360     0.2070     0.6190 c6         1 HTW       0.108300
      4 C5          -3.2350     0.9510    -0.4980 c6         1 HTW       0.145300
      5 O5          -1.8050     0.9400    -0.2200 os         1 HTW      -0.415000
      6 C1          -1.1610    -0.3370     0.0630 c5         1 HTW       0.279200
      7 N1           0.2470    -0.0210     0.5280 n2         1 HTW      -0.606900
      8 C15          1.0120    -0.6220    -0.3250 ce         1 HTW       0.548500
      9 N3           0.3340    -1.2710    -1.3170 ns         1 HTW      -0.457400
     10 C16         -1.0030    -1.1820    -1.2600 c          1 HTW       0.534000
     11 C6          -3.6820     2.4380    -0.6860 c3         1 HTW       0.170600
     12 O6          -2.9310     3.1330    -1.7010 oh         1 HTW      -0.701000
     13 O4          -5.4420     0.1010     0.3020 oh         1 HTW      -0.719000
     14 O3          -4.1650    -1.8930     1.8790 oh         1 HTW      -0.667000
     15 O2          -1.4220    -2.4370     1.4330 oh         1 HTW      -0.715000
     16 O1          -1.7960    -1.5870    -2.1000 o          1 HTW      -0.503000
     17 C17          2.5040    -0.7020    -0.2600 ca         1 HTW      -0.125900
     18 C10          3.3360     0.4280    -0.0170 ca         1 HTW       0.003000
     19 C9           4.7400     0.2490     0.0940 ca         1 HTW      -0.046000
     20 C8           5.3060    -1.0310    -0.0370 ca         1 HTW      -0.073000
     21 C7           4.4860    -2.1400    -0.2810 ca         1 HTW      -0.121000
     22 C18          3.0980    -1.9770    -0.3880 ca         1 HTW      -0.080000
     23 C14          2.8160     1.7420     0.0890 ca         1 HTW      -0.087000
     24 C13          3.6660     2.8350     0.3240 ca         1 HTW      -0.106000
     25 C12          5.0490     2.6410     0.4510 ca         1 HTW      -0.102000
     26 C11          5.5850     1.3500     0.3320 ca         1 HTW      -0.104000
     27 H1          -1.8560    -0.5120     2.1110 h1         1 HTW       0.072700
     28 H2          -3.5500    -1.7690    -0.1100 h1         1 HTW       0.075700
     29 H3          -3.9090     0.7710     1.5570 h1         1 HTW       0.054700
     30 H4          -3.4070     0.4340    -1.4530 h1         1 HTW       0.086700
     31 H5           0.8340    -1.7280    -2.0650 hn         1 HTW       0.348500
     32 H6          -4.7490     2.4500    -0.9450 h1         1 HTW       0.025700
     33 H7          -3.5730     2.9530     0.2780 h1         1 HTW       0.025700
     34 H8          -3.2350     4.0700    -1.6930 ho         1 HTW       0.504000
     35 H9          -5.8800     0.9390     0.5830 ho         1 HTW       0.510000
     36 H10         -5.1110    -1.6590     1.7250 ho         1 HTW       0.464000
     37 H11         -2.1440    -2.8920     1.9320 ho         1 HTW       0.529000
     38 H12          6.3820    -1.1680     0.0480 ha         1 HTW       0.116000
     39 H13          4.9270    -3.1300    -0.3790 ha         1 HTW       0.119000
     40 H14          2.4770    -2.8560    -0.5540 ha         1 HTW       0.118000
     41 H15          1.7540     1.9410    -0.0220 ha         1 HTW       0.146000
     42 H16          3.2510     3.8380     0.4050 ha         1 HTW       0.116000
     43 H17          5.7050     3.4890     0.6320 ha         1 HTW       0.114000
     44 H18          6.6600     1.2080     0.4210 ha         1 HTW       0.113000
@<TRIPOS>BOND
     1     1     2 1   
     2     1     6 1   
     3     1    15 1   
     4     1    27 1   
     5     2     3 1   
     6     2    14 1   
     7     2    28 1   
     8     3     4 1   
     9     3    13 1   
    10     3    29 1   
    11     4     5 1   
    12     4    11 1   
    13     4    30 1   
    14     5     6 1   
    15     6     7 1   
    16     6    10 1   
    17     7     8 2   
    18     8     9 1   
    19     8    17 1   
    20     9    10 1   
    21     9    31 1   
    22    10    16 2   
    23    11    12 1   
    24    11    32 1   
    25    11    33 1   
    26    12    34 1   
    27    13    35 1   
    28    14    36 1   
    29    15    37 1   
    30    17    18 ar  
    31    17    22 ar  
    32    18    19 ar  
    33    18    23 ar  
    34    19    20 ar  
    35    19    26 ar  
    36    20    21 ar  
    37    20    38 1   
    38    21    22 ar  
    39    21    39 1   
    40    22    40 1   
    41    23    24 ar  
    42    23    41 1   
    43    24    25 ar  
    44    24    42 1   
    45    25    26 ar  
    46    25    43 1   
    47    26    44 1   
@<TRIPOS>SUBSTRUCTURE
     1 HTW         1 TEMP              0 ****  ****    0 ROOT
