@<TRIPOS>MOLECULE
HTW
   44    47     1     0     0
SMALL
bcc


@<TRIPOS>ATOM
      1 C2          -1.8960    -1.0170     1.1670 c6         1 HTW       0.150100
      2 C3          -3.4000    -1.0400     0.9460 c6         1 HTW       0.104100
      3 C4          -3.9030     0.3650     0.6460 c6         1 HTW       0.085100
      4 C5          -3.1520     0.9260    -0.5650 c6         1 HTW       0.122100
      5 O5          -1.7480     0.8930    -0.3340 os         1 HTW      -0.368600
      6 C1          -1.1690    -0.3300     0.0080 c5         1 HTW       0.256000
      7 N1           0.1930    -0.0530     0.3960 n2         1 HTW      -0.606900
      8 C15          0.9630    -0.7040    -0.3850 ce         1 HTW       0.548500
      9 N3           0.3020    -1.4540    -1.3490 ns         1 HTW      -0.524400
     10 C16         -1.0400    -1.2730    -1.2150 c          1 HTW       0.676500
     11 C6          -3.5100     2.3730    -0.8270 c3         1 HTW       0.147400
     12 O6          -2.8810     2.7920    -2.0130 oh         1 HTW      -0.578800
     13 O4          -5.2860     0.2730     0.3880 oh         1 HTW      -0.596800
     14 O3          -3.9720    -1.5680     2.1190 oh         1 HTW      -0.604800
     15 O2          -1.3450    -2.3020     1.2730 oh         1 HTW      -0.592800
     16 O1          -1.9080    -1.7310    -1.9170 o          1 HTW      -0.578500
     17 C17          2.4280    -0.7370    -0.3240 ca         1 HTW      -0.125900
     18 C10          3.2010     0.4060     0.0490 ca         1 HTW       0.003000
     19 C9           4.6140     0.2650     0.1120 ca         1 HTW      -0.046000
     20 C8           5.2140    -0.9810    -0.1810 ca         1 HTW      -0.091000
     21 C7           4.4520    -2.0550    -0.5430 ca         1 HTW      -0.139000
     22 C18          3.0550    -1.9260    -0.6210 ca         1 HTW      -0.098000
     23 C14          2.6460     1.6810     0.3210 ca         1 HTW      -0.105000
     24 C13          3.4480     2.7400     0.6500 ca         1 HTW      -0.124000
     25 C12          4.8460     2.5920     0.7270 ca         1 HTW      -0.120000
     26 C11          5.4140     1.3790     0.4610 ca         1 HTW      -0.122000
     27 H1          -1.6930    -0.4180     2.0680 h1         1 HTW       0.072700
     28 H2          -3.6310    -1.6790     0.0810 h1         1 HTW       0.075700
     29 H3          -3.7060     1.0050     1.5170 h1         1 HTW       0.054700
     30 H4          -3.4190     0.3330    -1.4490 h1         1 HTW       0.086700
     31 H5           0.7410    -1.9320    -2.1230 hn         1 HTW       0.348500
     32 H6          -4.6010     2.4480    -0.9040 h1         1 HTW       0.025700
     33 H7          -3.2030     2.9780     0.0370 h1         1 HTW       0.025700
     34 H8          -3.1450     3.7000    -2.1860 ho         1 HTW       0.405000
     35 H9          -5.7190     1.0710     0.7030 ho         1 HTW       0.411000
     36 H10         -4.9100    -1.7130     1.9580 ho         1 HTW       0.425000
     37 H11         -1.7970    -2.7730     1.9820 ho         1 HTW       0.430000
     38 H12          6.2910    -1.0710    -0.1180 ha         1 HTW       0.134000
     39 H13          4.9110    -3.0070    -0.7700 ha         1 HTW       0.137000
     40 H14          2.4740    -2.7970    -0.8940 ha         1 HTW       0.136000
     41 H15          1.5760     1.8180     0.2770 ha         1 HTW       0.164000
     42 H16          3.0010     3.7050     0.8530 ha         1 HTW       0.134000
     43 H17          5.4650     3.4400     0.9910 ha         1 HTW       0.132000
     44 H18          6.4890     1.2520     0.5070 ha         1 HTW       0.131000
@<TRIPOS>BOND
     1     1     2 1   
     2     1     6 1   
     3     1    15 1   
     4     1    27 1   
     5     2     3 1   
     6     2    14 1   
     7     2    28 1   
     8     3     4 1   
     9     3    13 1   
    10     3    29 1   
    11     4     5 1   
    12     4    11 1   
    13     4    30 1   
    14     5     6 1   
    15     6     7 1   
    16     6    10 1   
    17     7     8 2   
    18     8     9 1   
    19     8    17 1   
    20     9    10 1   
    21     9    31 1   
    22    10    16 2   
    23    11    12 1   
    24    11    32 1   
    25    11    33 1   
    26    12    34 1   
    27    13    35 1   
    28    14    36 1   
    29    15    37 1   
    30    17    18 ar  
    31    17    22 ar  
    32    18    19 ar  
    33    18    23 ar  
    34    19    20 ar  
    35    19    26 ar  
    36    20    21 ar  
    37    20    38 1   
    38    21    22 ar  
    39    21    39 1   
    40    22    40 1   
    41    23    24 ar  
    42    23    41 1   
    43    24    25 ar  
    44    24    42 1   
    45    25    26 ar  
    46    25    43 1   
    47    26    44 1   
@<TRIPOS>SUBSTRUCTURE
     1 HTW         1 TEMP              0 ****  ****    0 ROOT
