@<TRIPOS>MOLECULE
HTX
   22    21     1     0     0
SMALL
No Charge or Current Charge


@<TRIPOS>ATOM
      1 C1           3.1580    -0.4520    -0.6010 c3         1 HTX      -0.202100
      2 C2           2.3240    -0.1010     0.6300 c          1 HTX       0.570100
      3 O2           2.7280     0.6890     1.4740 o          1 HTX      -0.520100
      4 C3           0.9430    -0.7620     0.7380 c3         1 HTX      -0.183400
      5 C5          -0.1710     0.1580     0.1850 c3         1 HTX      -0.065400
      6 C11         -1.5750    -0.4790     0.2690 c3         1 HTX      -0.077400
      7 C12         -2.6890     0.4380    -0.2820 c3         1 HTX      -0.074400
      8 C13         -4.0900    -0.1980    -0.1980 c3         1 HTX      -0.089100
      9 H1           4.1060     0.0970    -0.6410 hc         1 HTX       0.059367
     10 H1A          3.3200    -1.5350    -0.6210 hc         1 HTX       0.059367
     11 H1B          2.5540    -0.2910    -1.5010 hc         1 HTX       0.059367
     12 H3           0.9360    -1.6830     0.1430 hc         1 HTX       0.057700
     13 H3A          0.7310    -0.9840     1.7900 hc         1 HTX       0.057700
     14 H5          -0.1700     1.1030     0.7440 hc         1 HTX       0.051700
     15 H5A          0.0500     0.4070    -0.8610 hc         1 HTX       0.051700
     16 H11         -1.5760    -1.4230    -0.2910 hc         1 HTX       0.034700
     17 H11A        -1.7960    -0.7270     1.3150 hc         1 HTX       0.034700
     18 H12         -2.6930     1.3820     0.2770 hc         1 HTX       0.039700
     19 H12A        -2.4730     0.6860    -1.3280 hc         1 HTX       0.039700
     20 H13         -4.8460     0.4870    -0.5990 hc         1 HTX       0.031033
     21 H13A        -4.1290    -1.1290    -0.7780 hc         1 HTX       0.031033
     22 H13B        -4.3510    -0.4270     0.8420 hc         1 HTX       0.031033
@<TRIPOS>BOND
     1     1     2 1   
     2     1     9 1   
     3     1    10 1   
     4     1    11 1   
     5     2     3 2   
     6     2     4 1   
     7     4     5 1   
     8     4    12 1   
     9     4    13 1   
    10     5     6 1   
    11     5    14 1   
    12     5    15 1   
    13     6     7 1   
    14     6    16 1   
    15     6    17 1   
    16     7     8 1   
    17     7    18 1   
    18     7    19 1   
    19     8    20 1   
    20     8    21 1   
    21     8    22 1   
@<TRIPOS>SUBSTRUCTURE
     1 HTX         1 TEMP              0 ****  ****    0 ROOT
