@<TRIPOS>MOLECULE
HTX
   22    21     1     0     0
SMALL
bcc


@<TRIPOS>ATOM
      1 C1           3.4480    -0.8110     0.0220 c3         1 HTX      -0.202100
      2 C2           2.2570     0.1100     0.0440 c          1 HTX       0.570100
      3 O2           2.3760     1.3150     0.0700 o          1 HTX      -0.520100
      4 C3           0.9110    -0.5670     0.0310 c3         1 HTX      -0.183400
      5 C5          -0.2910     0.3630     0.0440 c3         1 HTX      -0.065400
      6 C11         -1.6050    -0.4090     0.0300 c3         1 HTX      -0.077400
      7 C12         -2.8320     0.4950     0.0410 c3         1 HTX      -0.074400
      8 C13         -4.1360    -0.2900     0.0250 c3         1 HTX      -0.089100
      9 H1           4.3850    -0.2580     0.0370 hc         1 HTX       0.059367
     10 H1A          3.4140    -1.4850     0.8800 hc         1 HTX       0.059367
     11 H1B          3.4170    -1.4400    -0.8700 hc         1 HTX       0.059367
     12 H3           0.8790    -1.2240    -0.8470 hc         1 HTX       0.057700
     13 H3A          0.8770    -1.2510     0.8870 hc         1 HTX       0.057700
     14 H5          -0.2550     1.0050     0.9290 hc         1 HTX       0.051700
     15 H5A         -0.2530     1.0310    -0.8220 hc         1 HTX       0.051700
     16 H11         -1.6400    -1.0540    -0.8550 hc         1 HTX       0.034700
     17 H11A        -1.6430    -1.0810     0.8950 hc         1 HTX       0.034700
     18 H12         -2.8000     1.1380     0.9260 hc         1 HTX       0.039700
     19 H12A        -2.7950     1.1650    -0.8230 hc         1 HTX       0.039700
     20 H13         -5.0050     0.3690     0.0330 hc         1 HTX       0.031033
     21 H13A        -4.2060    -0.9170    -0.8660 hc         1 HTX       0.031033
     22 H13B        -4.2120    -0.9460     0.8940 hc         1 HTX       0.031033
@<TRIPOS>BOND
     1     1     2 1   
     2     1     9 1   
     3     1    10 1   
     4     1    11 1   
     5     2     3 2   
     6     2     4 1   
     7     4     5 1   
     8     4    12 1   
     9     4    13 1   
    10     5     6 1   
    11     5    14 1   
    12     5    15 1   
    13     6     7 1   
    14     6    16 1   
    15     6    17 1   
    16     7     8 1   
    17     7    18 1   
    18     7    19 1   
    19     8    20 1   
    20     8    21 1   
    21     8    22 1   
@<TRIPOS>SUBSTRUCTURE
     1 HTX         1 TEMP              0 ****  ****    0 ROOT
