@<TRIPOS>MOLECULE
HTY
   24    24     1     0     0
SMALL
No Charge or Current Charge


@<TRIPOS>ATOM
      1 C          -15.8210    -8.4770    -6.0320 c          1 HTY       0.930600
      2 N          -18.0320    -7.0110    -5.7440 n8         1 HTY      -0.878800
      3 O          -14.6010    -8.4300    -5.8980 o          1 HTY      -0.832300
      4 CA         -16.6040    -7.1170    -6.2580 c3         1 HTY       0.035500
      5 CB         -16.4770    -6.6880    -7.7520 c3         1 HTY       0.156400
      6 OB         -16.9960    -5.3590    -7.9250 oh         1 HTY      -0.613800
      7 CG         -17.1650    -7.6450    -8.7320 ca         1 HTY      -0.125300
      8 CZ         -18.3880    -9.4190   -10.5580 ca         1 HTY       0.116100
      9 CD1        -18.5610    -7.6030    -8.9480 ca         1 HTY      -0.073500
     10 CD2        -16.3910    -8.5840    -9.4470 ca         1 HTY      -0.073500
     11 CE1        -19.1670    -8.4890    -9.8570 ca         1 HTY      -0.199000
     12 CE2        -17.0020    -9.4680   -10.3560 ca         1 HTY      -0.199000
     13 OXT        -16.4530    -9.5200    -5.8820 o          1 HTY      -0.832300
     14 H2         -18.4360    -6.1510    -6.1300 hn         1 HTY       0.330300
     15 H          -18.5820    -7.7640    -6.1700 hn         1 HTY       0.330300
     16 HA         -16.0320    -6.3740    -5.6860 h1         1 HTY       0.057700
     17 HB         -15.4040    -6.6790    -7.9920 h1         1 HTY       0.059700
     18 HOB        -16.9390    -5.1590    -8.8830 ho         1 HTY       0.379000
     19 HOH        -18.2890   -10.8430   -11.8280 ho         1 HTY       0.414000
     20 HD1        -19.1780    -6.8820    -8.4150 ha         1 HTY       0.142500
     21 HD2        -15.3130    -8.6320    -9.2980 ha         1 HTY       0.142500
     22 HE1        -20.2420    -8.4500   -10.0170 ha         1 HTY       0.123500
     23 HE2        -16.3910   -10.1860   -10.8970 ha         1 HTY       0.123500
     24 OH         -18.9830   -10.2720   -11.4370 oh         1 HTY      -0.513100
@<TRIPOS>BOND
     1     1     3 1   
     2     1     4 1   
     3     1    13 1   
     4     2     4 1   
     5     2    14 1   
     6     2    15 1   
     7     4     5 1   
     8     4    16 1   
     9     5     6 1   
    10     5     7 1   
    11     5    17 1   
    12     6    18 1   
    13     7     9 ar  
    14     7    10 ar  
    15     8    11 ar  
    16     8    12 ar  
    17     8    24 1   
    18     9    11 ar  
    19     9    20 1   
    20    10    12 ar  
    21    10    21 1   
    22    11    22 1   
    23    12    23 1   
    24    19    24 1   
@<TRIPOS>SUBSTRUCTURE
     1 HTY         1 TEMP              0 ****  ****    0 ROOT
