@<TRIPOS>MOLECULE
HTY
   24    24     1     0     0
SMALL
bcc


@<TRIPOS>ATOM
      1 C          -15.8340    -8.4450    -6.1410 c          1 HTY       0.930600
      2 N          -17.9680    -7.2160    -5.8170 n8         1 HTY      -0.878800
      3 O          -14.5980    -8.3690    -6.2980 o          1 HTY      -0.832300
      4 CA         -16.6090    -7.1150    -6.3060 c3         1 HTY       0.035500
      5 CB         -16.4870    -6.6350    -7.7700 c3         1 HTY       0.156400
      6 OB         -17.0550    -5.3410    -7.8190 oh         1 HTY      -0.613800
      7 CG         -17.1490    -7.5820    -8.7410 ca         1 HTY      -0.125300
      8 CZ         -18.3620    -9.4090   -10.5030 ca         1 HTY       0.116100
      9 CD1        -18.5020    -7.4850    -9.0610 ca         1 HTY      -0.073500
     10 CD2        -16.4200    -8.6120    -9.3280 ca         1 HTY      -0.073500
     11 CE1        -19.1060    -8.3810    -9.9290 ca         1 HTY      -0.199000
     12 CE2        -17.0080    -9.5190   -10.1960 ca         1 HTY      -0.199000
     13 OXT        -16.4960    -9.4690    -5.8910 o          1 HTY      -0.832300
     14 H2         -18.5150    -6.4270    -6.1380 hn         1 HTY       0.330300
     15 H          -18.3970    -8.0520    -6.1920 hn         1 HTY       0.330300
     16 HA         -16.0840    -6.3610    -5.7060 h1         1 HTY       0.057700
     17 HB         -15.4170    -6.5900    -8.0080 h1         1 HTY       0.059700
     18 HOB        -17.0260    -5.0310    -8.7300 ho         1 HTY       0.379000
     19 HOH        -18.3810   -10.9160   -11.6820 ho         1 HTY       0.414000
     20 HD1        -19.1030    -6.6890    -8.6390 ha         1 HTY       0.142500
     21 HD2        -15.3660    -8.7140    -9.1000 ha         1 HTY       0.142500
     22 HE1        -20.1590    -8.2850   -10.1660 ha         1 HTY       0.123500
     23 HE2        -16.4100   -10.3080   -10.6380 ha         1 HTY       0.123500
     24 OH         -18.9950   -10.2540   -11.3450 oh         1 HTY      -0.513100
@<TRIPOS>BOND
     1     1     3 1   
     2     1     4 1   
     3     1    13 1   
     4     2     4 1   
     5     2    14 1   
     6     2    15 1   
     7     4     5 1   
     8     4    16 1   
     9     5     6 1   
    10     5     7 1   
    11     5    17 1   
    12     6    18 1   
    13     7     9 ar  
    14     7    10 ar  
    15     8    11 ar  
    16     8    12 ar  
    17     8    24 1   
    18     9    11 ar  
    19     9    20 1   
    20    10    12 ar  
    21    10    21 1   
    22    11    22 1   
    23    12    23 1   
    24    19    24 1   
@<TRIPOS>SUBSTRUCTURE
     1 HTY         1 TEMP              0 ****  ****    0 ROOT
