@<TRIPOS>MOLECULE
HTZ
   86    91     1     0     0
SMALL
abcg2


@<TRIPOS>ATOM
      1 C5          -3.3810    -1.5980     1.1550 ca         1 HTZ      -0.037200
      2 C8          -1.4860    -0.7950     0.2790 cc         1 HTZ      -0.101300
      3 C10         -3.7130    -0.4770     0.3750 ca         1 HTZ      -0.105800
      4 C13         -6.0110    -0.8010     0.9540 ca         1 HTZ      -0.137000
      5 C15         -2.4380     1.1780    -1.0620 cd         1 HTZ      -0.100800
      6 C17         -2.4210     3.2920    -1.6350 cd         1 HTZ       0.386400
      7 C20         -2.7060     1.3240    -2.4050 cc         1 HTZ       0.317500
      8 C21         -3.0080     0.3010    -3.4070 ca         1 HTZ      -0.098500
      9 C22         -2.6610    -1.0410    -3.2310 ca         1 HTZ      -0.090000
     10 C24         -2.9730    -1.9880    -4.1960 ca         1 HTZ      -0.120000
     11 C26         -3.6280    -1.6170    -5.3620 ca         1 HTZ      -0.111000
     12 C28         -3.9650    -0.2830    -5.5560 ca         1 HTZ      -0.120000
     13 C2          -5.6410    -1.9190     1.7220 ca         1 HTZ       0.149000
     14 C3          -4.3380    -2.3450     1.8420 ca         1 HTZ      -0.129000
     15 N6          -2.0340    -1.7620     1.0840 na         1 HTZ      -0.208700
     16 C9          -2.4980     0.0180    -0.1830 cd         1 HTZ      -0.002400
     17 C11         -5.0510    -0.0790     0.2800 ca         1 HTZ      -0.036000
     18 N16         -2.2580     2.4530    -0.5900 na         1 HTZ      -0.159500
     19 N19         -2.6880     2.6520    -2.7370 nc         1 HTZ      -0.668000
     20 C30         -3.6590     0.6640    -4.5900 ca         1 HTZ      -0.090000
     21 C32         -2.0260     2.8470     0.7880 c3         1 HTZ       0.122900
     22 C35         -0.7250     2.3700     1.3820 ca         1 HTZ      -0.109300
     23 C36          0.5210     2.7570     0.8740 ca         1 HTZ      -0.033300
     24 C37          1.6790     2.3320     1.5140 ca         1 HTZ      -0.082000
     25 C39          1.5950     1.5380     2.6450 ca         1 HTZ       0.126000
     26 C40          0.3760     1.1370     3.1580 ca         1 HTZ      -0.120000
     27 C42         -0.7740     1.5600     2.5100 ca         1 HTZ      -0.090000
     28 CL2          3.0620     1.0500     3.4340 cl         1 HTZ      -0.199000
     29 C45          0.6230     3.6170    -0.3550 c3         1 HTZ       0.200900
     30 O48          1.9250     4.1220    -0.4880 oh         1 HTZ      -0.661000
     31 C50         -0.0570    -0.6430    -0.0930 c          1 HTZ       0.632300
     32 O51          0.2110     0.1100    -1.0230 o          1 HTZ      -0.575100
     33 N52          0.9040    -1.3190     0.5600 n          1 HTZ      -0.414800
     34 C53          2.2870    -1.1830     0.1240 c5         1 HTZ       0.096000
     35 C56          3.0200    -2.3090     0.8570 c5         1 HTZ       0.165500
     36 C58          2.2240    -2.4250     2.1540 c5         1 HTZ      -0.097400
     37 C61          0.7850    -2.1940     1.7210 c5         1 HTZ       0.103000
     38 N64          4.4270    -2.0220     1.0600 n3         1 HTZ      -0.703600
     39 C65          5.1110    -1.8070    -0.2070 c3         1 HTZ       0.161800
     40 C68          6.5470    -1.3190    -0.0570 c3         1 HTZ      -0.079400
     41 C71          7.1060    -0.8870    -1.4070 c3         1 HTZ       0.164800
     42 N74          8.4550    -0.3530    -1.3390 n3         1 HTZ      -0.709600
     43 C75          9.4370    -1.3600    -0.9990 c3         1 HTZ       0.149100
     44 C79          8.8110     0.2940    -2.5840 c3         1 HTZ       0.149100
     45 C83          5.0640    -3.0650     1.8380 c3         1 HTZ       0.148100
     46 H1          -7.0510    -0.5130     0.8960 ha         1 HTZ       0.132000
     47 H2          -2.3370     4.3640    -1.5280 h5         1 HTZ       0.051100
     48 H3          -2.1340    -1.3530    -2.3410 ha         1 HTZ       0.121500
     49 H4          -2.6930    -3.0220    -4.0360 ha         1 HTZ       0.107500
     50 H5          -3.8700    -2.3580    -6.1130 ha         1 HTZ       0.107000
     51 H6          -4.4730     0.0230    -6.4620 ha         1 HTZ       0.107500
     52 H7          -4.0710    -3.2100     2.4350 ha         1 HTZ       0.131000
     53 H9          -5.3350     0.7810    -0.3140 ha         1 HTZ       0.132000
     54 H10         -3.9300     1.6990    -4.7520 ha         1 HTZ       0.121500
     55 H11         -2.0820     3.9370     0.8140 h1         1 HTZ       0.064700
     56 H12         -2.8550     2.4830     1.3970 h1         1 HTZ       0.064700
     57 H13          2.6480     2.6240     1.1360 ha         1 HTZ       0.153000
     58 H14          0.3160     0.5140     4.0390 ha         1 HTZ       0.126000
     59 H15         -1.7360     1.2540     2.9020 ha         1 HTZ       0.118000
     60 H16          0.3370     3.0130    -1.2260 h1         1 HTZ       0.040700
     61 H17         -0.1090     4.4350    -0.2830 h1         1 HTZ       0.040700
     62 H18          1.9860     4.5640    -1.3400 ho         1 HTZ       0.452000
     63 H19          2.3550    -1.2640    -0.9600 h1         1 HTZ       0.070200
     64 H20          2.6970    -0.2120     0.4210 h1         1 HTZ       0.070200
     65 H21          2.8850    -3.2420     0.2770 h1         1 HTZ       0.028700
     66 H22          2.3300    -3.3870     2.6510 hc         1 HTZ       0.067200
     67 H23          2.5480    -1.6430     2.8440 hc         1 HTZ       0.067200
     68 H24          0.2020    -1.7340     2.5200 h1         1 HTZ       0.040200
     69 H25          0.3250    -3.1490     1.4480 h1         1 HTZ       0.040200
     70 H27          5.0990    -2.7200    -0.8300 h1         1 HTZ       0.032200
     71 H28          4.5630    -1.0480    -0.7690 h1         1 HTZ       0.032200
     72 H29          6.5730    -0.4730     0.6350 hc         1 HTZ       0.055200
     73 H30          7.1710    -2.1050     0.3710 hc         1 HTZ       0.055200
     74 H31          7.0420    -1.7310    -2.1180 h1         1 HTZ       0.029200
     75 H32          6.4600    -0.1010    -1.8090 h1         1 HTZ       0.029200
     76 H34          9.4840    -2.1810    -1.7330 h1         1 HTZ       0.030033
     77 H35         10.4280    -0.9050    -0.9480 h1         1 HTZ       0.030033
     78 H36          9.2320    -1.7980    -0.0230 h1         1 HTZ       0.030033
     79 H37          8.1060     1.0950    -2.8100 h1         1 HTZ       0.030033
     80 H38          9.8050     0.7380    -2.5040 h1         1 HTZ       0.030033
     81 H39          8.8240    -0.3940    -3.4450 h1         1 HTZ       0.030033
     82 H40          5.0790    -4.0400     1.3240 h1         1 HTZ       0.032367
     83 H41          6.0930    -2.7960     2.0690 h1         1 HTZ       0.032367
     84 H42          4.5560    -3.1980     2.7920 h1         1 HTZ       0.032367
     85 H43         -1.5470    -2.5370     1.4970 hn         1 HTZ       0.355000
     86 CL1         -6.8890    -2.7930     2.5520 cl         1 HTZ      -0.204000
@<TRIPOS>BOND
     1     1     3 ar  
     2     1    14 ar  
     3     1    15 1   
     4     2    15 1   
     5     2    16 2   
     6     2    31 1   
     7     3    16 1   
     8     3    17 ar  
     9     4    13 ar  
    10     4    17 ar  
    11     4    46 1   
    12     5     7 2   
    13     5    16 1   
    14     5    18 1   
    15     6    18 1   
    16     6    19 2   
    17     6    47 1   
    18     7     8 1   
    19     7    19 1   
    20     8     9 ar  
    21     8    20 ar  
    22     9    10 ar  
    23     9    48 1   
    24    10    11 ar  
    25    10    49 1   
    26    11    12 ar  
    27    11    50 1   
    28    12    20 ar  
    29    12    51 1   
    30    13    14 ar  
    31    13    86 1   
    32    14    52 1   
    33    15    85 1   
    34    17    53 1   
    35    18    21 1   
    36    20    54 1   
    37    21    22 1   
    38    21    55 1   
    39    21    56 1   
    40    22    23 ar  
    41    22    27 ar  
    42    23    24 ar  
    43    23    29 1   
    44    24    25 ar  
    45    24    57 1   
    46    25    26 ar  
    47    25    28 1   
    48    26    27 ar  
    49    26    58 1   
    50    27    59 1   
    51    29    30 1   
    52    29    60 1   
    53    29    61 1   
    54    30    62 1   
    55    31    32 2   
    56    31    33 1   
    57    33    34 1   
    58    33    37 1   
    59    34    35 1   
    60    34    63 1   
    61    34    64 1   
    62    35    36 1   
    63    35    38 1   
    64    35    65 1   
    65    36    37 1   
    66    36    66 1   
    67    36    67 1   
    68    37    68 1   
    69    37    69 1   
    70    38    39 1   
    71    38    45 1   
    72    39    40 1   
    73    39    70 1   
    74    39    71 1   
    75    40    41 1   
    76    40    72 1   
    77    40    73 1   
    78    41    42 1   
    79    41    74 1   
    80    41    75 1   
    81    42    43 1   
    82    42    44 1   
    83    43    76 1   
    84    43    77 1   
    85    43    78 1   
    86    44    79 1   
    87    44    80 1   
    88    44    81 1   
    89    45    82 1   
    90    45    83 1   
    91    45    84 1   
@<TRIPOS>SUBSTRUCTURE
     1 HTZ         1 TEMP              0 ****  ****    0 ROOT
