@<TRIPOS>MOLECULE
HTZ
   86    91     1     0     0
SMALL
No Charge or Current Charge


@<TRIPOS>ATOM
      1 C5          -3.4600    -1.8540     0.6680 ca         1 HTZ      -0.037200
      2 C8          -1.4860    -0.7820     0.1260 cc         1 HTZ      -0.101300
      3 C10         -3.8220    -0.7930    -0.1080 ca         1 HTZ      -0.105800
      4 C13         -6.1440    -1.3940     0.1040 ca         1 HTZ      -0.137000
      5 C15         -2.4420     1.1070    -1.1890 cd         1 HTZ      -0.100800
      6 C17         -2.1390     3.2380    -1.7380 cd         1 HTZ       0.386400
      7 C20         -3.1120     1.4340    -2.3410 cc         1 HTZ       0.317500
      8 C21         -3.8980     0.4830    -3.1420 ca         1 HTZ      -0.098500
      9 C22         -3.4700    -0.8520    -3.3230 ca         1 HTZ      -0.090000
     10 C24         -4.2130    -1.7390    -4.1210 ca         1 HTZ      -0.120000
     11 C26         -5.3790    -1.2980    -4.7670 ca         1 HTZ      -0.111000
     12 C28         -5.7920     0.0360    -4.6260 ca         1 HTZ      -0.120000
     13 C2          -5.7640    -2.5120     0.8830 ca         1 HTZ       0.149000
     14 C3          -4.4070    -2.7490     1.1810 ca         1 HTZ      -0.129000
     15 N6          -2.0880    -1.8550     0.8350 na         1 HTZ      -0.208700
     16 C9          -2.5890    -0.1010    -0.4120 cd         1 HTZ      -0.002400
     17 C11         -5.1660    -0.5070    -0.3950 ca         1 HTZ      -0.036000
     18 N16         -1.8570     2.2930    -0.7510 na         1 HTZ      -0.159500
     19 N19         -2.9110     2.7340    -2.6960 nc         1 HTZ      -0.668000
     20 C30         -5.0490     0.9240    -3.8290 ca         1 HTZ      -0.090000
     21 C32         -1.5260     2.6490     0.6490 c3         1 HTZ       0.122900
     22 C35         -0.1310     2.3000     1.1810 ca         1 HTZ      -0.109300
     23 C36          1.0680     2.8020     0.6000 ca         1 HTZ      -0.033300
     24 C37          2.3080     2.4430     1.1790 ca         1 HTZ      -0.082000
     25 C39          2.3630     1.6410     2.3260 ca         1 HTZ       0.126000
     26 C40          1.1820     1.1700     2.9100 ca         1 HTZ      -0.120000
     27 C42         -0.0570     1.4950     2.3380 ca         1 HTZ      -0.090000
     28 Cl2          3.9190     1.2310     3.0360 cl         1 HTZ      -0.199000
     29 C45          1.0370     3.7100    -0.6380 c3         1 HTZ       0.200900
     30 O48          2.2080     4.5350    -0.7470 oh         1 HTZ      -0.661000
     31 C50         -0.0410    -0.5370    -0.2300 c          1 HTZ       0.632300
     32 O51          0.3100     0.2180    -1.1280 o          1 HTZ      -0.575100
     33 N52          0.9510    -1.2800     0.4600 n          1 HTZ      -0.414800
     34 C53          2.3790    -1.2040     0.0750 c5         1 HTZ       0.096000
     35 C56          3.0040    -2.3960     0.8660 c5         1 HTZ       0.165500
     36 C58          2.1860    -2.3170     2.1840 c5         1 HTZ      -0.097400
     37 C61          0.7420    -2.1230     1.6550 c5         1 HTZ       0.103000
     38 N64          4.4530    -2.1050     1.1590 n3         1 HTZ      -0.703600
     39 C65          5.2940    -1.9090    -0.0590 c3         1 HTZ       0.161800
     40 C68          6.6950    -1.3070     0.1940 c3         1 HTZ      -0.079400
     41 C71          7.4170    -0.9330    -1.1200 c3         1 HTZ       0.164800
     42 N74          8.7090    -0.2190    -0.9470 n3         1 HTZ      -0.709600
     43 C75          9.7400    -1.0050    -0.2270 c3         1 HTZ       0.149100
     44 C79          9.2220     0.3150    -2.2280 c3         1 HTZ       0.149100
     45 C83          5.0800    -3.0590     2.1150 c3         1 HTZ       0.148100
     46 H1          -7.1950    -1.2130    -0.1040 ha         1 HTZ       0.132000
     47 H2          -1.8370     4.2740    -1.6440 h5         1 HTZ       0.051100
     48 H3          -2.5580    -1.2070    -2.8500 ha         1 HTZ       0.121500
     49 H4          -3.8810    -2.7680    -4.2420 ha         1 HTZ       0.107500
     50 H5          -5.9530    -1.9850    -5.3850 ha         1 HTZ       0.107000
     51 H6          -6.6870     0.3850    -5.1370 ha         1 HTZ       0.107500
     52 H7          -4.1100    -3.5960     1.7930 ha         1 HTZ       0.131000
     53 H9          -5.4530     0.3690    -0.9690 ha         1 HTZ       0.132000
     54 H10         -5.3780     1.9570    -3.7310 ha         1 HTZ       0.121500
     55 H11         -1.6720     3.7300     0.7690 h1         1 HTZ       0.064700
     56 H12         -2.2810     2.1740     1.2890 h1         1 HTZ       0.064700
     57 H13          3.2420     2.7920     0.7460 ha         1 HTZ       0.153000
     58 H14          1.2260     0.5520     3.8040 ha         1 HTZ       0.126000
     59 H15         -0.9660     1.1180     2.8030 ha         1 HTZ       0.118000
     60 H16          0.9320     3.0790    -1.5310 h1         1 HTZ       0.040700
     61 H17          0.1540     4.3570    -0.5830 h1         1 HTZ       0.040700
     62 H18          2.1030     5.0730    -1.5630 ho         1 HTZ       0.452000
     63 H19          2.5190    -1.3190    -1.0080 h1         1 HTZ       0.070200
     64 H20          2.8110    -0.2430     0.3810 h1         1 HTZ       0.070200
     65 H21          2.8550    -3.3540     0.3480 h1         1 HTZ       0.028700
     66 H22          2.2700    -3.2190     2.7980 hc         1 HTZ       0.067200
     67 H23          2.4960    -1.4660     2.8000 hc         1 HTZ       0.067200
     68 H24          0.1050    -1.6370     2.4060 h1         1 HTZ       0.040200
     69 H25          0.3010    -3.0880     1.3730 h1         1 HTZ       0.040200
     70 H27          5.4120    -2.8650    -0.5870 h1         1 HTZ       0.032200
     71 H28          4.7890    -1.2280    -0.7560 h1         1 HTZ       0.032200
     72 H29          6.5920    -0.4090     0.8150 hc         1 HTZ       0.055200
     73 H30          7.3070    -2.0260     0.7470 hc         1 HTZ       0.055200
     74 H31          7.5720    -1.8490    -1.7070 h1         1 HTZ       0.029200
     75 H32          6.7350    -0.2960    -1.6990 h1         1 HTZ       0.029200
     76 H34          9.9620    -1.9400    -0.7590 h1         1 HTZ       0.030033
     77 H35         10.6720    -0.4320    -0.1390 h1         1 HTZ       0.030033
     78 H36          9.4130    -1.2540     0.7910 h1         1 HTZ       0.030033
     79 H37          8.4770     0.9660    -2.7050 h1         1 HTZ       0.030033
     80 H38         10.1320     0.9090    -2.0650 h1         1 HTZ       0.030033
     81 H39          9.4640    -0.5000    -2.9240 h1         1 HTZ       0.030033
     82 H40          5.1490    -4.0630     1.6750 h1         1 HTZ       0.032367
     83 H41          6.0890    -2.7380     2.4010 h1         1 HTZ       0.032367
     84 H42          4.5080    -3.1340     3.0480 h1         1 HTZ       0.032367
     85 H43         -1.5830    -2.5890     1.3170 hn         1 HTZ       0.355000
     86 Cl1         -6.9960    -3.6030     1.5010 cl         1 HTZ      -0.204000
@<TRIPOS>BOND
     1     1     3 ar  
     2     1    14 ar  
     3     1    15 1   
     4     2    15 1   
     5     2    16 2   
     6     2    31 1   
     7     3    16 1   
     8     3    17 ar  
     9     4    13 ar  
    10     4    17 ar  
    11     4    46 1   
    12     5     7 2   
    13     5    16 1   
    14     5    18 1   
    15     6    18 1   
    16     6    19 2   
    17     6    47 1   
    18     7     8 1   
    19     7    19 1   
    20     8     9 ar  
    21     8    20 ar  
    22     9    10 ar  
    23     9    48 1   
    24    10    11 ar  
    25    10    49 1   
    26    11    12 ar  
    27    11    50 1   
    28    12    20 ar  
    29    12    51 1   
    30    13    14 ar  
    31    13    86 1   
    32    14    52 1   
    33    15    85 1   
    34    17    53 1   
    35    18    21 1   
    36    20    54 1   
    37    21    22 1   
    38    21    55 1   
    39    21    56 1   
    40    22    23 ar  
    41    22    27 ar  
    42    23    24 ar  
    43    23    29 1   
    44    24    25 ar  
    45    24    57 1   
    46    25    26 ar  
    47    25    28 1   
    48    26    27 ar  
    49    26    58 1   
    50    27    59 1   
    51    29    30 1   
    52    29    60 1   
    53    29    61 1   
    54    30    62 1   
    55    31    32 2   
    56    31    33 1   
    57    33    34 1   
    58    33    37 1   
    59    34    35 1   
    60    34    63 1   
    61    34    64 1   
    62    35    36 1   
    63    35    38 1   
    64    35    65 1   
    65    36    37 1   
    66    36    66 1   
    67    36    67 1   
    68    37    68 1   
    69    37    69 1   
    70    38    39 1   
    71    38    45 1   
    72    39    40 1   
    73    39    70 1   
    74    39    71 1   
    75    40    41 1   
    76    40    72 1   
    77    40    73 1   
    78    41    42 1   
    79    41    74 1   
    80    41    75 1   
    81    42    43 1   
    82    42    44 1   
    83    43    76 1   
    84    43    77 1   
    85    43    78 1   
    86    44    79 1   
    87    44    80 1   
    88    44    81 1   
    89    45    82 1   
    90    45    83 1   
    91    45    84 1   
@<TRIPOS>SUBSTRUCTURE
     1 HTZ         1 TEMP              0 ****  ****    0 ROOT
