@<TRIPOS>MOLECULE
HU0
   31    33     1     0     0
SMALL
abcg2


@<TRIPOS>ATOM
      1 C13         12.0850   -26.6500   -36.0250 ca         1 HU0      -0.055000
      2 C15         10.4300   -25.6530   -37.4580 ca         1 HU0       0.151100
      3 C17          9.4370   -26.3510   -36.7720 ca         1 HU0      -0.177500
      4 C02          9.7490   -28.8000   -29.6340 ca         1 HU0       0.085100
      5 C03         10.3040   -30.0370   -29.4020 ca         1 HU0      -0.181000
      6 C04         11.1110   -30.5120   -30.4420 ca         1 HU0       0.008800
      7 C05         11.3520   -29.8120   -31.6410 ca         1 HU0      -0.291900
      8 C06         12.2420   -30.6630   -32.3580 cc         1 HU0       0.364800
      9 C09         10.7470   -28.5450   -31.8400 ca         1 HU0       0.422000
     10 C12         11.1070   -27.3620   -35.3390 ca         1 HU0      -0.159300
     11 C14         11.7600   -25.8060   -37.0760 ca         1 HU0      -0.177500
     12 C18          9.7800   -27.1960   -35.7290 ca         1 HU0      -0.055000
     13 C19          9.9450   -28.0580   -30.8020 ca         1 HU0      -0.250000
     14 N07         12.5030   -31.7500   -31.6810 nd         1 HU0      -0.524100
     15 N08         11.8210   -31.6570   -30.5350 na         1 HU0      -0.065400
     16 N10         10.9250   -27.8010   -32.9580 nu         1 HU0      -0.969200
     17 O16         10.1620   -24.8280   -38.4890 oh         1 HU0      -0.530100
     18 H1          13.1240   -26.7580   -35.7390 ha         1 HU0       0.118000
     19 H2           8.3960   -26.2440   -37.0570 ha         1 HU0       0.125000
     20 H3          10.1460   -30.6000   -28.4940 ha         1 HU0       0.136000
     21 H4          12.6960   -30.5200   -33.3250 h4         1 HU0       0.044800
     22 H5          11.0640   -29.2850   -34.4210 h1         1 HU0       0.049700
     23 H6          12.5530   -28.3850   -34.1560 h1         1 HU0       0.049700
     24 H7          12.5360   -25.2650   -37.6020 ha         1 HU0       0.125000
     25 H8           8.9950   -27.7400   -35.2160 ha         1 HU0       0.118000
     26 H9           9.4640   -27.0950   -30.9210 ha         1 HU0       0.126000
     27 H11         10.4450   -26.9160   -32.9900 hn         1 HU0       0.493000
     28 H12          9.2160   -24.8090   -38.6730 ho         1 HU0       0.468000
     29 H10         11.8830   -32.3950   -29.8520 hn         1 HU0       0.377000
     30 C11         11.4640   -28.2880   -34.2110 c3         1 HU0       0.284100
     31 BR1          8.6380   -28.0490   -28.2960 br         1 HU0      -0.108100
@<TRIPOS>BOND
     1     1    10 ar  
     2     1    11 ar  
     3     1    18 1   
     4     2     3 ar  
     5     2    11 ar  
     6     2    17 1   
     7     3    12 ar  
     8     3    19 1   
     9     4     5 ar  
    10     4    13 ar  
    11     4    31 1   
    12     5     6 ar  
    13     5    20 1   
    14     6     7 ar  
    15     6    15 1   
    16     7     8 1   
    17     7     9 ar  
    18     8    14 2   
    19     8    21 1   
    20     9    13 ar  
    21     9    16 1   
    22    10    12 ar  
    23    10    30 1   
    24    11    24 1   
    25    12    25 1   
    26    13    26 1   
    27    14    15 1   
    28    15    29 1   
    29    16    27 1   
    30    16    30 1   
    31    17    28 1   
    32    22    30 1   
    33    23    30 1   
@<TRIPOS>SUBSTRUCTURE
     1 HU0         1 TEMP              0 ****  ****    0 ROOT
