@<TRIPOS>MOLECULE
HU0
   31    33     1     0     0
SMALL
No Charge or Current Charge


@<TRIPOS>ATOM
      1 C13         11.9400   -26.9550   -35.9400 ca         1 HU0      -0.055000
      2 C15         10.6520   -25.5160   -37.4200 ca         1 HU0       0.151100
      3 C17          9.4610   -26.0730   -36.9290 ca         1 HU0      -0.177500
      4 C02          9.6420   -28.9070   -29.6830 ca         1 HU0       0.085100
      5 C03         10.4570   -30.0150   -29.3770 ca         1 HU0      -0.181000
      6 C04         11.4020   -30.3990   -30.3330 ca         1 HU0       0.008800
      7 C05         11.5410   -29.7440   -31.5150 ca         1 HU0      -0.291900
      8 C06         12.6230   -30.4000   -32.1960 cc         1 HU0       0.364800
      9 C09         10.7460   -28.6490   -31.8520 ca         1 HU0       0.422000
     10 C12         10.7490   -27.5200   -35.4420 ca         1 HU0      -0.159300
     11 C14         11.8890   -25.9550   -36.9270 ca         1 HU0      -0.177500
     12 C18          9.5080   -27.0740   -35.9410 ca         1 HU0      -0.055000
     13 C19          9.7890   -28.2250   -30.9130 ca         1 HU0      -0.250000
     14 N07         13.1220   -31.4200   -31.4760 nd         1 HU0      -0.524100
     15 N08         12.3410   -31.4060   -30.3120 na         1 HU0      -0.065400
     16 N10         10.8760   -27.9740   -33.0560 nu         1 HU0      -0.969200
     17 O16         10.6150   -24.5460   -38.3770 oh         1 HU0      -0.530100
     18 H1          12.9030   -27.2890   -35.5590 ha         1 HU0       0.118000
     19 H2           8.4980   -25.7380   -37.3050 ha         1 HU0       0.125000
     20 H3          10.3580   -30.5440   -28.4320 ha         1 HU0       0.136000
     21 H4          13.0900   -30.1990   -33.1510 h4         1 HU0       0.044800
     22 H5           9.9020   -29.2300   -34.4470 h1         1 HU0       0.049700
     23 H6          11.6720   -29.2490   -34.5550 h1         1 HU0       0.049700
     24 H7          12.8100   -25.5220   -37.3080 ha         1 HU0       0.125000
     25 H8           8.5810   -27.5010   -35.5630 ha         1 HU0       0.118000
     26 H9           9.1520   -27.3740   -31.1350 ha         1 HU0       0.126000
     27 H11         10.4660   -27.0410   -33.0310 hn         1 HU0       0.493000
     28 H12          9.6760   -24.3660   -38.6000 ho         1 HU0       0.468000
     29 H10         12.4860   -32.0780   -29.5590 hn         1 HU0       0.377000
     30 C11         10.8030   -28.6030   -34.3770 c3         1 HU0       0.284100
     31 Br1          8.3300   -28.3180   -28.4240 br         1 HU0      -0.108100
@<TRIPOS>BOND
     1     1    10 ar  
     2     1    11 ar  
     3     1    18 1   
     4     2     3 ar  
     5     2    11 ar  
     6     2    17 1   
     7     3    12 ar  
     8     3    19 1   
     9     4     5 ar  
    10     4    13 ar  
    11     4    31 1   
    12     5     6 ar  
    13     5    20 1   
    14     6     7 ar  
    15     6    15 1   
    16     7     8 1   
    17     7     9 ar  
    18     8    14 2   
    19     8    21 1   
    20     9    13 ar  
    21     9    16 1   
    22    10    12 ar  
    23    10    30 1   
    24    11    24 1   
    25    12    25 1   
    26    13    26 1   
    27    14    15 1   
    28    15    29 1   
    29    16    27 1   
    30    16    30 1   
    31    17    28 1   
    32    22    30 1   
    33    23    30 1   
@<TRIPOS>SUBSTRUCTURE
     1 HU0         1 TEMP              0 ****  ****    0 ROOT
