@<TRIPOS>MOLECULE
HU1
   85    88     1     0     0
SMALL
No Charge or Current Charge


@<TRIPOS>ATOM
      1 C1           4.6920     0.1680     0.6190 c          1 HU1       0.650100
      2 O2           5.2560     0.0760    -0.4590 o          1 HU1      -0.560000
      3 O3           5.2370     0.5660     1.8080 os         1 HU1      -0.474100
      4 C4           6.6330     0.9210     1.9450 c3         1 HU1       0.224000
      5 C5           6.9470     2.1560     1.0620 c3         1 HU1      -0.109100
      6 C6           6.7880     1.2870     3.4370 c3         1 HU1      -0.109100
      7 C7           7.5170    -0.3080     1.6070 c3         1 HU1      -0.109100
      8 N8           3.3740    -0.1110     0.8320 ns         1 HU1      -0.490900
      9 C9           2.4200    -0.5810    -0.1980 c3         1 HU1       0.061700
     10 C10          2.2480    -2.1460    -0.1570 c6         1 HU1      -0.066700
     11 C11          1.3340    -2.6830    -1.2990 c6         1 HU1      -0.073900
     12 C12          3.6120    -2.9080    -0.1780 c6         1 HU1      -0.073900
     13 C13          1.1440    -4.2170    -1.2170 c6         1 HU1      -0.072400
     14 C14          3.4220    -4.4440    -0.1080 c6         1 HU1      -0.072400
     15 C15          2.5040    -4.9510    -1.2430 c6         1 HU1      -0.076400
     16 C16          1.0760     0.2020    -0.0120 c          1 HU1       0.586100
     17 O17          0.7000     0.5430     1.1050 o          1 HU1      -0.618100
     18 N18          0.2640     0.4660    -1.1390 n          1 HU1      -0.386800
     19 C19          0.8400     0.6260    -2.4990 c5         1 HU1       0.130000
     20 C20         -1.0900     1.0880    -0.9770 c5         1 HU1       0.059700
     21 C21         -1.4190     1.6170    -2.3900 cx         1 HU1      -0.137700
     22 C22         -0.2550     1.3390    -3.3000 cx         1 HU1      -0.122700
     23 C23         -0.5820     2.7740    -2.9130 cx         1 HU1      -0.074000
     24 C24         -1.2030     3.6770    -3.9770 c3         1 HU1      -0.065600
     25 C25          0.3310     3.6160    -2.0030 c3         1 HU1      -0.065600
     26 C26         -2.1740     0.0900    -0.4540 c          1 HU1       0.599100
     27 O27         -2.0690    -1.1200    -0.2970 o          1 HU1      -0.599100
     28 N28         -3.3490     0.7800    -0.2220 ns         1 HU1      -0.486900
     29 C29         -4.6210     0.1660     0.2240 c3         1 HU1       0.028700
     30 C30         -4.9530     0.5030     1.7030 c3         1 HU1      -0.066400
     31 C31         -3.9490    -0.0480     2.7340 cy         1 HU1      -0.083700
     32 C32         -2.5730     0.6770     2.9370 cy         1 HU1      -0.089400
     33 C33         -4.2000     0.2880     4.2440 cy         1 HU1      -0.089400
     34 C34         -2.6510     0.1720     4.4140 cy         1 HU1      -0.092400
     35 C36         -5.7760     0.5930    -0.7240 c          1 HU1       0.481100
     36 O37         -7.1220    -1.4440    -0.1870 o          1 HU1      -0.583100
     37 N38         -8.0860     0.0510    -1.5560 nt         1 HU1      -0.584000
     38 C39         -7.0480    -0.3760    -0.7830 c          1 HU1       0.507100
     39 H51          6.1950     2.9410     1.2090 hc         1 HU1       0.049811
     40 H52          7.9260     2.5730     1.3240 hc         1 HU1       0.049811
     41 H53          6.9780     1.9020    -0.0030 hc         1 HU1       0.049811
     42 H61          6.5270     0.4360     4.0770 hc         1 HU1       0.049811
     43 H62          7.8220     1.5760     3.6630 hc         1 HU1       0.049811
     44 H63          6.1350     2.1280     3.7020 hc         1 HU1       0.049811
     45 H71          7.5350    -0.5170     0.5320 hc         1 HU1       0.049811
     46 H72          8.5530    -0.1300     1.9200 hc         1 HU1       0.049811
     47 H73          7.1550    -1.2020     2.1280 hc         1 HU1       0.049811
     48 HN8          3.0350     0.0480     1.7720 hn         1 HU1       0.334500
     49 H9           2.8330    -0.3180    -1.1780 h1         1 HU1       0.085700
     50 H10          1.7570    -2.3650     0.8020 hc         1 HU1       0.066700
     51 H111         0.3450    -2.2100    -1.2570 hc         1 HU1       0.047200
     52 H112         1.7670    -2.4260    -2.2750 hc         1 HU1       0.047200
     53 H121         4.1700    -2.6470    -1.0880 hc         1 HU1       0.047200
     54 H122         4.2390    -2.6030     0.6700 hc         1 HU1       0.047200
     55 H131         0.6000    -4.4750    -0.2980 hc         1 HU1       0.040950
     56 H132         0.5210    -4.5600    -2.0550 hc         1 HU1       0.040950
     57 H141         4.3990    -4.9430    -0.1690 hc         1 HU1       0.040950
     58 H142         2.9920    -4.7190     0.8650 hc         1 HU1       0.040950
     59 H151         2.3470    -6.0330    -1.1420 hc         1 HU1       0.038200
     60 H152         2.9930    -4.7930    -2.2150 hc         1 HU1       0.038200
     61 H191         1.7740     1.2030    -2.4770 h1         1 HU1       0.066700
     62 H192         1.0730    -0.3530    -2.9370 h1         1 HU1       0.066700
     63 H20         -1.0500     1.9080    -0.2470 h1         1 HU1       0.083700
     64 H21         -2.4260     1.5010    -2.7880 hc         1 HU1       0.107700
     65 H22         -0.4510     1.0300    -4.3250 hc         1 HU1       0.099700
     66 H241        -1.8030     4.4730    -3.5180 hc         1 HU1       0.041700
     67 H242        -0.4300     4.1490    -4.5940 hc         1 HU1       0.041700
     68 H243        -1.8630     3.1150    -4.6500 hc         1 HU1       0.041700
     69 H251         0.8250     3.0420    -1.2120 hc         1 HU1       0.041700
     70 H252         1.1230     4.0960    -2.5890 hc         1 HU1       0.041700
     71 H253        -0.2420     4.4100    -1.5100 hc         1 HU1       0.041700
     72 HN28        -3.3410     1.7750    -0.4220 hn         1 HU1       0.322500
     73 H29         -4.5440    -0.9260     0.1310 h1         1 HU1       0.119700
     74 H301        -5.0370     1.5920     1.8110 hc         1 HU1       0.053700
     75 H302        -5.9440     0.0980     1.9390 hc         1 HU1       0.053700
     76 H31         -3.8420    -1.1260     2.5540 hc         1 HU1       0.066700
     77 H321        -1.7340     0.2890     2.3520 hc         1 HU1       0.050950
     78 H322        -2.6050     1.7670     2.8240 hc         1 HU1       0.050950
     79 H331        -4.6040     1.2910     4.4310 hc         1 HU1       0.050950
     80 H332        -4.8000    -0.4380     4.8040 hc         1 HU1       0.050950
     81 H341        -2.2830    -0.8510     4.5670 hc         1 HU1       0.049700
     82 H342        -2.2000     0.8240     5.1700 hc         1 HU1       0.049700
     83 H381        -8.0180     0.9310    -2.0490 hn         1 HU1       0.326500
     84 H382        -8.9170    -0.5180    -1.6350 hn         1 HU1       0.326500
     85 O35         -5.7170     1.6170    -1.4100 o          1 HU1      -0.506100
@<TRIPOS>BOND
     1     1     2 2   
     2     1     3 1   
     3     1     8 1   
     4     3     4 1   
     5     4     5 1   
     6     4     6 1   
     7     4     7 1   
     8     5    39 1   
     9     5    40 1   
    10     5    41 1   
    11     6    42 1   
    12     6    43 1   
    13     6    44 1   
    14     7    45 1   
    15     7    46 1   
    16     7    47 1   
    17     8     9 1   
    18     8    48 1   
    19     9    10 1   
    20     9    16 1   
    21     9    49 1   
    22    10    11 1   
    23    10    12 1   
    24    10    50 1   
    25    11    13 1   
    26    11    51 1   
    27    11    52 1   
    28    12    14 1   
    29    12    53 1   
    30    12    54 1   
    31    13    15 1   
    32    13    55 1   
    33    13    56 1   
    34    14    15 1   
    35    14    57 1   
    36    14    58 1   
    37    15    59 1   
    38    15    60 1   
    39    16    17 2   
    40    16    18 1   
    41    18    19 1   
    42    18    20 1   
    43    19    22 1   
    44    19    61 1   
    45    19    62 1   
    46    20    21 1   
    47    20    26 1   
    48    20    63 1   
    49    21    22 1   
    50    21    23 1   
    51    21    64 1   
    52    22    23 1   
    53    22    65 1   
    54    23    24 1   
    55    23    25 1   
    56    24    66 1   
    57    24    67 1   
    58    24    68 1   
    59    25    69 1   
    60    25    70 1   
    61    25    71 1   
    62    26    27 2   
    63    26    28 1   
    64    28    29 1   
    65    28    72 1   
    66    29    30 1   
    67    29    35 1   
    68    29    73 1   
    69    30    31 1   
    70    30    74 1   
    71    30    75 1   
    72    31    32 1   
    73    31    33 1   
    74    31    76 1   
    75    32    34 1   
    76    32    77 1   
    77    32    78 1   
    78    33    34 1   
    79    33    79 1   
    80    33    80 1   
    81    34    81 1   
    82    34    82 1   
    83    35    38 1   
    84    35    85 2   
    85    36    38 2   
    86    37    38 1   
    87    37    83 1   
    88    37    84 1   
@<TRIPOS>SUBSTRUCTURE
     1 HU1         1 TEMP              0 ****  ****    0 ROOT
