@<TRIPOS>MOLECULE
HU1
   85    88     1     0     0
SMALL
bcc


@<TRIPOS>ATOM
      1 C1           4.1410     0.2370     0.3330 c          1 HU1       0.766100
      2 O2           4.1650     0.8000    -0.7430 o          1 HU1      -0.609000
      3 O3           4.8980     0.5340     1.3870 os         1 HU1      -0.450900
      4 C4           5.8600     1.6250     1.3790 c3         1 HU1       0.200800
      5 C5           5.1630     2.9640     1.1650 c3         1 HU1      -0.109100
      6 C6           6.4520     1.5670     2.7820 c3         1 HU1      -0.109100
      7 C7           6.9520     1.3840     0.3440 c3         1 HU1      -0.109100
      8 N8           3.3360    -0.8120     0.6180 ns         1 HU1      -0.557900
      9 C9           2.3060    -1.2500    -0.2950 c3         1 HU1       0.061700
     10 C10          1.9980    -2.7370    -0.0990 c6         1 HU1      -0.066700
     11 C11          0.8870    -3.1900    -1.0490 c6         1 HU1      -0.073900
     12 C12          3.2480    -3.5930    -0.3110 c6         1 HU1      -0.073900
     13 C13          0.5810    -4.6750    -0.8840 c6         1 HU1      -0.072400
     14 C14          2.9440    -5.0790    -0.1460 c6         1 HU1      -0.072400
     15 C15          1.8270    -5.5300    -1.0800 c6         1 HU1      -0.076400
     16 C16          1.0530    -0.4070    -0.0380 c          1 HU1       0.653100
     17 O17          0.5330    -0.4220     1.0710 o          1 HU1      -0.618100
     18 N18          0.5690     0.3580    -1.0280 n          1 HU1      -0.453800
     19 C19          1.0180     0.3970    -2.4200 c5         1 HU1       0.130000
     20 C20         -0.6210     1.1480    -0.7870 c5         1 HU1       0.059700
     21 C21         -0.7830     1.9890    -2.0350 cx         1 HU1      -0.137700
     22 C22          0.2330     1.5260    -3.0380 cx         1 HU1      -0.122700
     23 C23          0.3370     2.9040    -2.4440 cx         1 HU1      -0.074000
     24 C24         -0.0730     4.0380    -3.3560 c3         1 HU1      -0.065600
     25 C25          1.4450     3.2920    -1.4910 c3         1 HU1      -0.065600
     26 C26         -1.8470     0.2570    -0.6410 c          1 HU1       0.666100
     27 O27         -1.9700    -0.7800    -1.2730 o          1 HU1      -0.599100
     28 N28         -2.7920     0.7370     0.1810 ns         1 HU1      -0.553900
     29 C29         -4.0810     0.1200     0.3200 c3         1 HU1       0.028700
     30 C30         -4.7050     0.4860     1.6720 c3         1 HU1      -0.066400
     31 C31         -3.8970    -0.0450     2.8410 cy         1 HU1      -0.083700
     32 C32         -2.5850     0.6470     3.2700 cy         1 HU1      -0.089400
     33 C33         -4.4330     0.2050     4.2640 cy         1 HU1      -0.089400
     34 C34         -2.9770     0.3800     4.7350 cy         1 HU1      -0.092400
     35 C36         -4.9910     0.5400    -0.8190 c          1 HU1       0.481100
     36 O37         -6.3650    -1.3900    -0.4650 o          1 HU1      -0.583100
     37 N38         -7.0820     0.1670    -1.9530 nt         1 HU1      -0.651000
     38 C39         -6.2340    -0.3340    -1.0610 c          1 HU1       0.574100
     39 H51          4.3530     3.1030     1.8820 hc         1 HU1       0.049811
     40 H52          5.8840     3.7680     1.3180 hc         1 HU1       0.049811
     41 H53          4.7610     3.0660     0.1590 hc         1 HU1       0.049811
     42 H61          6.9300     0.6040     2.9700 hc         1 HU1       0.049811
     43 H62          7.2080     2.3420     2.9000 hc         1 HU1       0.049811
     44 H63          5.6870     1.7270     3.5430 hc         1 HU1       0.049811
     45 H71          6.5790     1.4570    -0.6750 hc         1 HU1       0.049811
     46 H72          7.7320     2.1360     0.4700 hc         1 HU1       0.049811
     47 H73          7.4120     0.4040     0.4810 hc         1 HU1       0.049811
     48 HN8          3.2880    -1.1360     1.5720 hn         1 HU1       0.334500
     49 H9           2.6800    -1.1170    -1.3100 h1         1 HU1       0.085700
     50 H10          1.6490    -2.8810     0.9320 hc         1 HU1       0.066700
     51 H111        -0.0250    -2.6100    -0.8930 hc         1 HU1       0.047200
     52 H112         1.2050    -2.9970    -2.0810 hc         1 HU1       0.047200
     53 H121         3.6340    -3.4100    -1.3210 hc         1 HU1       0.047200
     54 H122         4.0380    -3.2990     0.3830 hc         1 HU1       0.047200
     55 H131         0.1810    -4.8470     0.1220 hc         1 HU1       0.040950
     56 H132        -0.2030    -4.9720    -1.5850 hc         1 HU1       0.040950
     57 H141         3.8500    -5.6640    -0.3250 hc         1 HU1       0.040950
     58 H142         2.6490    -5.2730     0.8910 hc         1 HU1       0.040950
     59 H151         1.5940    -6.5840    -0.9090 hc         1 HU1       0.038200
     60 H152         2.1660    -5.4490    -2.1180 hc         1 HU1       0.038200
     61 H191         2.0950     0.5610    -2.4730 h1         1 HU1       0.066700
     62 H192         0.7850    -0.5390    -2.9330 h1         1 HU1       0.066700
     63 H20         -0.4910     1.7630     0.1100 h1         1 HU1       0.083700
     64 H21         -1.7940     2.2500    -2.3270 hc         1 HU1       0.107700
     65 H22         -0.0190     1.4260    -4.0870 hc         1 HU1       0.099700
     66 H241        -0.4390     4.8890    -2.7780 hc         1 HU1       0.041700
     67 H242         0.7770     4.3810    -3.9500 hc         1 HU1       0.041700
     68 H243        -0.8630     3.7430    -4.0480 hc         1 HU1       0.041700
     69 H251         1.8810     2.4570    -0.9470 hc         1 HU1       0.041700
     70 H252         2.2560     3.7700    -2.0450 hc         1 HU1       0.041700
     71 H253         1.0810     4.0160    -0.7590 hc         1 HU1       0.041700
     72 HN28        -2.6390     1.6270     0.6290 hn         1 HU1       0.322500
     73 H29         -3.9600    -0.9650     0.2830 h1         1 HU1       0.119700
     74 H301        -4.8100     1.5730     1.7500 hc         1 HU1       0.053700
     75 H302        -5.7140     0.0720     1.7220 hc         1 HU1       0.053700
     76 H31         -3.7190    -1.1170     2.7020 hc         1 HU1       0.066700
     77 H321        -1.6450     0.2420     2.8960 hc         1 HU1       0.050950
     78 H322        -2.6130     1.7170     3.0480 hc         1 HU1       0.050950
     79 H331        -4.9870     1.1460     4.3190 hc         1 HU1       0.050950
     80 H332        -5.0360    -0.5780     4.7250 hc         1 HU1       0.050950
     81 H341        -2.5570    -0.5580     5.1010 hc         1 HU1       0.049700
     82 H342        -2.7700     1.1600     5.4680 hc         1 HU1       0.049700
     83 H381        -6.9020     1.0430    -2.4170 hn         1 HU1       0.326500
     84 H382        -7.9190    -0.3350    -2.2030 hn         1 HU1       0.326500
     85 O35         -4.7730     1.4980    -1.5130 o          1 HU1      -0.506100
@<TRIPOS>BOND
     1     1     2 2   
     2     1     3 1   
     3     1     8 1   
     4     3     4 1   
     5     4     5 1   
     6     4     6 1   
     7     4     7 1   
     8     5    39 1   
     9     5    40 1   
    10     5    41 1   
    11     6    42 1   
    12     6    43 1   
    13     6    44 1   
    14     7    45 1   
    15     7    46 1   
    16     7    47 1   
    17     8     9 1   
    18     8    48 1   
    19     9    10 1   
    20     9    16 1   
    21     9    49 1   
    22    10    11 1   
    23    10    12 1   
    24    10    50 1   
    25    11    13 1   
    26    11    51 1   
    27    11    52 1   
    28    12    14 1   
    29    12    53 1   
    30    12    54 1   
    31    13    15 1   
    32    13    55 1   
    33    13    56 1   
    34    14    15 1   
    35    14    57 1   
    36    14    58 1   
    37    15    59 1   
    38    15    60 1   
    39    16    17 2   
    40    16    18 1   
    41    18    19 1   
    42    18    20 1   
    43    19    22 1   
    44    19    61 1   
    45    19    62 1   
    46    20    21 1   
    47    20    26 1   
    48    20    63 1   
    49    21    22 1   
    50    21    23 1   
    51    21    64 1   
    52    22    23 1   
    53    22    65 1   
    54    23    24 1   
    55    23    25 1   
    56    24    66 1   
    57    24    67 1   
    58    24    68 1   
    59    25    69 1   
    60    25    70 1   
    61    25    71 1   
    62    26    27 2   
    63    26    28 1   
    64    28    29 1   
    65    28    72 1   
    66    29    30 1   
    67    29    35 1   
    68    29    73 1   
    69    30    31 1   
    70    30    74 1   
    71    30    75 1   
    72    31    32 1   
    73    31    33 1   
    74    31    76 1   
    75    32    34 1   
    76    32    77 1   
    77    32    78 1   
    78    33    34 1   
    79    33    79 1   
    80    33    80 1   
    81    34    81 1   
    82    34    82 1   
    83    35    38 1   
    84    35    85 2   
    85    36    38 2   
    86    37    38 1   
    87    37    83 1   
    88    37    84 1   
@<TRIPOS>SUBSTRUCTURE
     1 HU1         1 TEMP              0 ****  ****    0 ROOT
