@<TRIPOS>MOLECULE
HU2
   96    96     1     0     0
SMALL
bcc


@<TRIPOS>ATOM
      1 C1          -5.4020     0.9110     0.4140 c          1 HU2       0.673100
      2 C2          -6.4970     0.3710    -0.4870 c3         1 HU2      -0.127700
      3 C3          -7.7900     0.2310     0.3340 c3         1 HU2      -0.033200
      4 C4          -8.9380    -0.3250    -0.4470 c2         1 HU2      -0.169200
      5 C5          -9.4710    -1.5280    -0.2450 c2         1 HU2      -0.169200
      6 C6         -10.6340    -2.0820    -1.0040 c3         1 HU2      -0.039200
      7 C7         -10.3490    -3.3970    -1.7430 c3         1 HU2      -0.057700
      8 C8         -10.0080    -4.5290    -0.7790 c3         1 HU2      -0.087100
      9 C9         -11.5460    -3.7740    -2.6100 c3         1 HU2      -0.087100
     10 C10         -6.6480     1.2190    -1.7700 c3         1 HU2      -0.047700
     11 C11         -7.1760     2.6320    -1.5420 c3         1 HU2      -0.091100
     12 C12         -5.3460     1.2570    -2.5670 c3         1 HU2      -0.091100
     13 O13         -5.5590     1.9170     1.0940 o          1 HU2      -0.618100
     14 N14         -4.2590     0.1990     0.4160 ns         1 HU2      -0.557900
     15 C15         -3.0800     0.5630     1.1570 c3         1 HU2       0.030700
     16 C16         -2.6230    -0.5650     2.0890 c3         1 HU2      -0.087400
     17 C17         -3.6190    -0.9230     3.1920 c3         1 HU2      -0.055700
     18 C18         -3.0820    -2.1070     3.9920 c3         1 HU2      -0.092100
     19 C19         -3.9130     0.2590     4.1100 c3         1 HU2      -0.092100
     20 C20         -1.9400     0.8890     0.2000 c          1 HU2       0.652100
     21 O21         -1.7500     0.2530    -0.8240 o          1 HU2      -0.602100
     22 N22         -1.1440     1.8950     0.5980 ns         1 HU2      -0.555900
     23 C23          0.0980     2.2030    -0.0590 c3         1 HU2       0.022700
     24 C24          0.6170     3.5660     0.4140 c3         1 HU2      -0.083400
     25 C25         -0.2810     4.7180    -0.0210 c3         1 HU2      -0.074400
     26 C26          0.2370     6.0630     0.4690 c3         1 HU2      -0.090100
     27 C28          1.1310     1.1320     0.2350 c          1 HU2       0.480100
     28 O29          2.3860     1.7740    -1.7110 o          1 HU2      -0.617100
     29 N30          3.3100     0.2700    -0.2930 ns         1 HU2      -0.517900
     30 C31          4.5340     0.0880    -1.0220 c3         1 HU2       0.002000
     31 C32          5.4330    -0.8710    -0.2560 c          1 HU2       0.659100
     32 O33          5.0550    -1.4180     0.7710 o          1 HU2      -0.606100
     33 C34          2.3510     1.0940    -0.6970 c          1 HU2       0.570100
     34 N35          6.6280    -1.0750    -0.8080 ns         1 HU2      -0.523900
     35 C36          7.6310    -1.8990    -0.1720 c3         1 HU2      -0.008000
     36 C37          8.8900    -1.9070    -0.9980 ca         1 HU2      -0.043300
     37 C38          9.4980    -3.1070    -1.3500 ca         1 HU2      -0.120000
     38 C39          9.4960    -0.7100    -1.3810 ca         1 HU2      -0.120000
     39 C40         10.6840    -3.1170    -2.0740 ca         1 HU2      -0.141000
     40 C41         10.6750    -0.7180    -2.1120 ca         1 HU2      -0.141000
     41 C42         11.2750    -1.9220    -2.4600 ca         1 HU2      -0.154000
     42 C43          8.0090    -1.3950     1.2560 c          1 HU2       0.944600
     43 O44          8.4390    -2.2770     2.0200 o          1 HU2      -0.811300
     44 O45          7.8990    -0.1780     1.4700 o          1 HU2      -0.811300
     45 H2          -6.2160    -0.6350    -0.8200 hc         1 HU2       0.052700
     46 H31         -7.5860    -0.4240     1.1860 hc         1 HU2       0.057700
     47 H32         -8.0620     1.2040     0.7490 hc         1 HU2       0.057700
     48 H41A        -9.3660     0.3100    -1.2190 ha         1 HU2       0.117000
     49 H51         -9.0470    -2.1550     0.5370 ha         1 HU2       0.117000
     50 H61        -11.4660    -2.2610    -0.3100 hc         1 HU2       0.041700
     51 H62        -10.9870    -1.3350    -1.7210 hc         1 HU2       0.041700
     52 H7          -9.4890    -3.2330    -2.4030 hc         1 HU2       0.049700
     53 H81         -9.8490    -5.4650    -1.3160 hc         1 HU2       0.031700
     54 H82         -9.1050    -4.3270    -0.2030 hc         1 HU2       0.031700
     55 H83        -10.8240    -4.6900    -0.0690 hc         1 HU2       0.031700
     56 H91        -11.7560    -3.0070    -3.3570 hc         1 HU2       0.031700
     57 H92        -11.3730    -4.7130    -3.1380 hc         1 HU2       0.031700
     58 H93        -12.4450    -3.8990    -2.0000 hc         1 HU2       0.031700
     59 H10         -7.3830     0.6870    -2.3830 hc         1 HU2       0.043700
     60 H111        -6.4580     3.2520    -1.0080 hc         1 HU2       0.038200
     61 H112        -7.3770     3.1110    -2.5020 hc         1 HU2       0.038200
     62 H113        -8.1080     2.6410    -0.9760 hc         1 HU2       0.038200
     63 H121        -4.9600     0.2540    -2.7580 hc         1 HU2       0.038200
     64 H122        -5.5060     1.7380    -3.5330 hc         1 HU2       0.038200
     65 H123        -4.5670     1.8190    -2.0490 hc         1 HU2       0.038200
     66 HN14        -4.1870    -0.5970    -0.1980 hn         1 HU2       0.326500
     67 H15         -3.3240     1.4490     1.7430 h1         1 HU2       0.089700
     68 H161        -2.4100    -1.4540     1.4860 hc         1 HU2       0.061700
     69 H162        -1.6710    -0.2710     2.5440 hc         1 HU2       0.061700
     70 H17         -4.5570    -1.2340     2.7200 hc         1 HU2       0.044700
     71 H181        -2.1370    -1.8540     4.4780 hc         1 HU2       0.035033
     72 H182        -3.7840    -2.4050     4.7720 hc         1 HU2       0.035033
     73 H183        -2.9060    -2.9750     3.3550 hc         1 HU2       0.035033
     74 H191        -4.4440     1.0610     3.5970 hc         1 HU2       0.035033
     75 H192        -4.5360    -0.0510     4.9510 hc         1 HU2       0.035033
     76 H193        -2.9890     0.6760     4.5190 hc         1 HU2       0.035033
     77 HN22        -1.3240     2.3300     1.4900 hn         1 HU2       0.319500
     78 H23         -0.0620     2.2480    -1.1390 h1         1 HU2       0.112700
     79 H241         0.7160     3.5520     1.5050 hc         1 HU2       0.059200
     80 H242         1.6210     3.7260     0.0170 hc         1 HU2       0.059200
     81 H251        -0.3460     4.7230    -1.1130 hc         1 HU2       0.043200
     82 H252        -1.2990     4.5620     0.3440 hc         1 HU2       0.043200
     83 H261        -0.4070     6.8760     0.1350 hc         1 HU2       0.032700
     84 H262         0.2770     6.0990     1.5590 hc         1 HU2       0.032700
     85 H263         1.2420     6.2610     0.0930 hc         1 HU2       0.032700
     86 HN30         3.1910    -0.2730     0.5520 hn         1 HU2       0.368500
     87 H311         4.3410    -0.3170    -2.0200 h1         1 HU2       0.060200
     88 H312         5.0490     1.0420    -1.1620 h1         1 HU2       0.060200
     89 HN35         6.8610    -0.5910    -1.6610 hn         1 HU2       0.297500
     90 H36          7.2600    -2.9250    -0.0900 h1         1 HU2       0.060700
     91 H38          9.0380    -4.0440    -1.0620 ha         1 HU2       0.138500
     92 H39          9.0510     0.2370    -1.0980 ha         1 HU2       0.138500
     93 H40         11.1430    -4.0610    -2.3370 ha         1 HU2       0.112000
     94 H41         11.1320     0.2190    -2.4010 ha         1 HU2       0.112000
     95 H42         12.1960    -1.9280    -3.0290 ha         1 HU2       0.109000
     96 O27          1.0320     0.3530     1.1470 o          1 HU2      -0.492100
@<TRIPOS>BOND
     1     1     2 1   
     2     1    13 2   
     3     1    14 1   
     4     2     3 1   
     5     2    10 1   
     6     2    45 1   
     7     3     4 1   
     8     3    46 1   
     9     3    47 1   
    10     4     5 2   
    11     4    48 1   
    12     5     6 1   
    13     5    49 1   
    14     6     7 1   
    15     6    50 1   
    16     6    51 1   
    17     7     8 1   
    18     7     9 1   
    19     7    52 1   
    20     8    53 1   
    21     8    54 1   
    22     8    55 1   
    23     9    56 1   
    24     9    57 1   
    25     9    58 1   
    26    10    11 1   
    27    10    12 1   
    28    10    59 1   
    29    11    60 1   
    30    11    61 1   
    31    11    62 1   
    32    12    63 1   
    33    12    64 1   
    34    12    65 1   
    35    14    15 1   
    36    14    66 1   
    37    15    16 1   
    38    15    20 1   
    39    15    67 1   
    40    16    17 1   
    41    16    68 1   
    42    16    69 1   
    43    17    18 1   
    44    17    19 1   
    45    17    70 1   
    46    18    71 1   
    47    18    72 1   
    48    18    73 1   
    49    19    74 1   
    50    19    75 1   
    51    19    76 1   
    52    20    21 2   
    53    20    22 1   
    54    22    23 1   
    55    22    77 1   
    56    23    24 1   
    57    23    27 1   
    58    23    78 1   
    59    24    25 1   
    60    24    79 1   
    61    24    80 1   
    62    25    26 1   
    63    25    81 1   
    64    25    82 1   
    65    26    83 1   
    66    26    84 1   
    67    26    85 1   
    68    27    33 1   
    69    27    96 2   
    70    28    33 2   
    71    29    30 1   
    72    29    33 1   
    73    29    86 1   
    74    30    31 1   
    75    30    87 1   
    76    30    88 1   
    77    31    32 2   
    78    31    34 1   
    79    34    35 1   
    80    34    89 1   
    81    35    36 1   
    82    35    42 1   
    83    35    90 1   
    84    36    37 ar  
    85    36    38 ar  
    86    37    39 ar  
    87    37    91 1   
    88    38    40 ar  
    89    38    92 1   
    90    39    41 ar  
    91    39    93 1   
    92    40    41 ar  
    93    40    94 1   
    94    41    95 1   
    95    42    43 1   
    96    42    44 1   
@<TRIPOS>SUBSTRUCTURE
     1 HU2         1 TEMP              0 ****  ****    0 ROOT
