@<TRIPOS>MOLECULE
HU2
   96    96     1     0     0
SMALL
No Charge or Current Charge


@<TRIPOS>ATOM
      1 C1          -5.7120     0.9230     0.9890 c          1 HU2       0.606100
      2 C2          -6.9890     0.6410     0.1650 c3         1 HU2      -0.127700
      3 C3          -8.0560    -0.0620     1.0490 c3         1 HU2      -0.033200
      4 C4          -9.2720    -0.5150     0.2670 c2         1 HU2      -0.219200
      5 C5          -9.5020    -1.7720    -0.1430 c2         1 HU2      -0.219200
      6 C6         -10.7250    -2.2270    -0.9150 c3         1 HU2      -0.039200
      7 C7         -10.4550    -2.4180    -2.4300 c3         1 HU2      -0.057700
      8 C8          -9.3940    -3.5090    -2.7100 c3         1 HU2      -0.087100
      9 C9         -11.7630    -2.7060    -3.2000 c3         1 HU2      -0.087100
     10 C10         -7.5030     1.8950    -0.6200 c3         1 HU2      -0.047700
     11 C11         -8.1110     3.0100     0.2690 c3         1 HU2      -0.091100
     12 C12         -6.4110     2.4740    -1.5530 c3         1 HU2      -0.091100
     13 O13         -5.6960     1.6490     1.9740 o          1 HU2      -0.618100
     14 N14         -4.5800     0.2840     0.5340 ns         1 HU2      -0.490900
     15 C15         -3.2350     0.3750     1.1460 c3         1 HU2       0.030700
     16 C16         -2.9130    -0.9090     1.9640 c3         1 HU2      -0.087400
     17 C17         -3.8090    -1.1630     3.2100 c3         1 HU2      -0.055700
     18 C18         -3.5600    -2.5730     3.7900 c3         1 HU2      -0.092100
     19 C19         -3.6230    -0.0850     4.3050 c3         1 HU2      -0.092100
     20 C20         -2.1670     0.6160     0.0410 c          1 HU2       0.585100
     21 O21         -2.3800     0.4280    -1.1510 o          1 HU2      -0.602100
     22 N22         -0.9460     1.0690     0.5000 ns         1 HU2      -0.488900
     23 C23          0.2140     1.4140    -0.3570 c3         1 HU2       0.022700
     24 C24          0.2730     2.9350    -0.6650 c3         1 HU2      -0.083400
     25 C25         -0.9570     3.4850    -1.4270 c3         1 HU2      -0.074400
     26 C26         -0.8260     4.9790    -1.7820 c3         1 HU2      -0.090100
     27 C28          1.5320     0.9150     0.2980 c          1 HU2       0.480100
     28 O29          2.7110     0.8010    -1.8980 o          1 HU2      -0.617100
     29 N30          3.9520     0.3250    -0.0390 ns         1 HU2      -0.450900
     30 C31          5.2340     0.0570    -0.7260 c3         1 HU2       0.002000
     31 C32          6.3540    -0.3210     0.2700 c          1 HU2       0.592100
     32 O33          6.1770    -0.3820     1.4820 o          1 HU2      -0.606100
     33 C34          2.7750     0.6810    -0.6760 c          1 HU2       0.503100
     34 N35          7.5750    -0.5890    -0.3080 ns         1 HU2      -0.456900
     35 C36          8.8000    -0.9540     0.4430 c3         1 HU2      -0.008000
     36 C37          9.7980    -1.6850    -0.4540 ca         1 HU2      -0.043300
     37 C38         10.1690    -3.0130    -0.1620 ca         1 HU2      -0.102000
     38 C39         10.3520    -1.0480    -1.5840 ca         1 HU2      -0.102000
     39 C40         11.0830    -3.6930    -0.9860 ca         1 HU2      -0.123000
     40 C41         11.2660    -1.7290    -2.4070 ca         1 HU2      -0.123000
     41 C42         11.6320    -3.0510    -2.1080 ca         1 HU2      -0.136000
     42 C43          9.4500     0.2840     1.1440 c          1 HU2       0.734000
     43 O44          9.9510     0.1200     2.2490 o          1 HU2      -0.706000
     44 O45          9.4510     1.3640     0.5630 o          1 HU2      -0.706000
     45 H2          -6.7120    -0.0910    -0.6040 hc         1 HU2       0.052700
     46 H31         -7.5840    -0.9320     1.5260 hc         1 HU2       0.057700
     47 H32         -8.3590     0.5950     1.8730 hc         1 HU2       0.057700
     48 H41A        -9.9920     0.2770     0.0520 ha         1 HU2       0.167000
     49 H51         -8.7870    -2.5660     0.0810 ha         1 HU2       0.167000
     50 H61        -11.1080    -3.1620    -0.4890 hc         1 HU2       0.041700
     51 H62        -11.5270    -1.4880    -0.7940 hc         1 HU2       0.041700
     52 H7         -10.0570    -1.4690    -2.8140 hc         1 HU2       0.049700
     53 H81         -9.2330    -3.6230    -3.7890 hc         1 HU2       0.031700
     54 H82         -8.4310    -3.2490    -2.2570 hc         1 HU2       0.031700
     55 H83         -9.7150    -4.4780    -2.3080 hc         1 HU2       0.031700
     56 H91        -12.4900    -1.8990    -3.0480 hc         1 HU2       0.031700
     57 H92        -11.5700    -2.7870    -4.2770 hc         1 HU2       0.031700
     58 H93        -12.2170    -3.6460    -2.8610 hc         1 HU2       0.031700
     59 H10         -8.3100     1.5510    -1.2790 hc         1 HU2       0.043700
     60 H111        -7.3620     3.4360     0.9460 hc         1 HU2       0.038200
     61 H112        -8.4990     3.8240    -0.3550 hc         1 HU2       0.038200
     62 H113        -8.9460     2.6320     0.8680 hc         1 HU2       0.038200
     63 H121        -6.0090     1.6960    -2.2120 hc         1 HU2       0.038200
     64 H122        -6.8260     3.2680    -2.1860 hc         1 HU2       0.038200
     65 H123        -5.5810     2.9010    -0.9770 hc         1 HU2       0.038200
     66 HN14        -4.6790    -0.2630    -0.3140 hn         1 HU2       0.326500
     67 H15         -3.1930     1.2500     1.8060 h1         1 HU2       0.089700
     68 H161        -2.9880    -1.7710     1.2880 hc         1 HU2       0.061700
     69 H162        -1.8670    -0.8740     2.2940 hc         1 HU2       0.061700
     70 H17         -4.8580    -1.1340     2.8900 hc         1 HU2       0.044700
     71 H181        -2.5230    -2.6780     4.1330 hc         1 HU2       0.035033
     72 H182        -4.2240    -2.7660     4.6410 hc         1 HU2       0.035033
     73 H183        -3.7510    -3.3440     3.0340 hc         1 HU2       0.035033
     74 H191        -3.8880     0.9110     3.9370 hc         1 HU2       0.035033
     75 H192        -4.2650    -0.2990     5.1680 hc         1 HU2       0.035033
     76 H193        -2.5830    -0.0570     4.6520 hc         1 HU2       0.035033
     77 HN22        -0.8460     1.1750     1.5040 hn         1 HU2       0.319500
     78 H23          0.1240     0.8730    -1.3090 h1         1 HU2       0.112700
     79 H241         0.3880     3.4880     0.2760 hc         1 HU2       0.059200
     80 H242         1.1710     3.1420    -1.2610 hc         1 HU2       0.059200
     81 H251        -1.1010     2.9100    -2.3510 hc         1 HU2       0.043200
     82 H252        -1.8600     3.3500    -0.8200 hc         1 HU2       0.043200
     83 H261        -1.7200     5.3240    -2.3170 hc         1 HU2       0.032700
     84 H262        -0.7140     5.5850    -0.8750 hc         1 HU2       0.032700
     85 H263         0.0450     5.1510    -2.4250 hc         1 HU2       0.032700
     86 HN30         3.9180     0.2430     0.9760 hn         1 HU2       0.368500
     87 H311         5.1060    -0.7710    -1.4350 h1         1 HU2       0.060200
     88 H312         5.5490     0.9500    -1.2800 h1         1 HU2       0.060200
     89 HN35         7.6350    -0.5040    -1.3160 hn         1 HU2       0.297500
     90 H36          8.4980    -1.6370     1.2470 h1         1 HU2       0.060700
     91 H38          9.7490    -3.5200     0.7040 ha         1 HU2       0.120500
     92 H39         10.0760    -0.0240    -1.8240 ha         1 HU2       0.120500
     93 H40         11.3650    -4.7180    -0.7540 ha         1 HU2       0.094000
     94 H41         11.6900    -1.2310    -3.2760 ha         1 HU2       0.094000
     95 H42         12.3390    -3.5780    -2.7450 ha         1 HU2       0.091000
     96 O27          1.6190     0.6940     1.5080 o          1 HU2      -0.492100
@<TRIPOS>BOND
     1     1     2 1   
     2     1    13 2   
     3     1    14 1   
     4     2     3 1   
     5     2    10 1   
     6     2    45 1   
     7     3     4 1   
     8     3    46 1   
     9     3    47 1   
    10     4     5 2   
    11     4    48 1   
    12     5     6 1   
    13     5    49 1   
    14     6     7 1   
    15     6    50 1   
    16     6    51 1   
    17     7     8 1   
    18     7     9 1   
    19     7    52 1   
    20     8    53 1   
    21     8    54 1   
    22     8    55 1   
    23     9    56 1   
    24     9    57 1   
    25     9    58 1   
    26    10    11 1   
    27    10    12 1   
    28    10    59 1   
    29    11    60 1   
    30    11    61 1   
    31    11    62 1   
    32    12    63 1   
    33    12    64 1   
    34    12    65 1   
    35    14    15 1   
    36    14    66 1   
    37    15    16 1   
    38    15    20 1   
    39    15    67 1   
    40    16    17 1   
    41    16    68 1   
    42    16    69 1   
    43    17    18 1   
    44    17    19 1   
    45    17    70 1   
    46    18    71 1   
    47    18    72 1   
    48    18    73 1   
    49    19    74 1   
    50    19    75 1   
    51    19    76 1   
    52    20    21 2   
    53    20    22 1   
    54    22    23 1   
    55    22    77 1   
    56    23    24 1   
    57    23    27 1   
    58    23    78 1   
    59    24    25 1   
    60    24    79 1   
    61    24    80 1   
    62    25    26 1   
    63    25    81 1   
    64    25    82 1   
    65    26    83 1   
    66    26    84 1   
    67    26    85 1   
    68    27    33 1   
    69    27    96 2   
    70    28    33 2   
    71    29    30 1   
    72    29    33 1   
    73    29    86 1   
    74    30    31 1   
    75    30    87 1   
    76    30    88 1   
    77    31    32 2   
    78    31    34 1   
    79    34    35 1   
    80    34    89 1   
    81    35    36 1   
    82    35    42 1   
    83    35    90 1   
    84    36    37 ar  
    85    36    38 ar  
    86    37    39 ar  
    87    37    91 1   
    88    38    40 ar  
    89    38    92 1   
    90    39    41 ar  
    91    39    93 1   
    92    40    41 ar  
    93    40    94 1   
    94    41    95 1   
    95    42    43 1   
    96    42    44 1   
@<TRIPOS>SUBSTRUCTURE
     1 HU2         1 TEMP              0 ****  ****    0 ROOT
