@<TRIPOS>MOLECULE
HU3
   37    39     1     0     0
SMALL
bcc


@<TRIPOS>ATOM
      1 C10        -10.1290   -25.6090    37.9080 c6         1 HU3      -0.069400
      2 C15        -12.8960   -29.6760    32.4570 cc         1 HU3       0.367800
      3 BR1         -7.4730   -30.8370    30.0950 br         1 HU3      -0.111100
      4 C02         -9.1320   -30.4290    30.9130 ca         1 HU3       0.087100
      5 C03         -9.1040   -29.7100    32.1100 ca         1 HU3      -0.274000
      6 C04        -10.2870   -29.3600    32.7730 ca         1 HU3       0.290600
      7 N05        -10.2220   -28.6490    33.9210 nu         1 HU3      -0.777600
      8 C06        -11.3360   -28.2710    34.7600 c3         1 HU3       0.235800
      9 C07        -10.8460   -27.4380    35.9380 c6         1 HU3      -0.074700
     10 C08        -11.9840   -27.0340    36.8710 c6         1 HU3       0.154100
     11 C09        -11.4130   -26.4110    38.1540 c6         1 HU3      -0.112400
     12 C11        -10.1210   -25.0370    36.4970 c6         1 HU3      -0.077400
     13 C12        -10.1190   -26.1640    35.4560 c6         1 HU3      -0.076400
     14 O13        -12.7830   -28.1630    37.1560 oh         1 HU3      -0.601800
     15 C14        -11.5030   -29.7770    32.1710 ca         1 HU3      -0.293900
     16 N16        -13.6120   -30.2650    31.5360 nd         1 HU3      -0.527100
     17 N17        -12.7480   -30.7580    30.6420 na         1 HU3      -0.016100
     18 C18        -11.4620   -30.5030    30.9630 ca         1 HU3       0.009800
     19 C19        -10.2850   -30.8520    30.2920 ca         1 HU3      -0.204000
     20 H1          -9.2550   -26.2550    38.0330 hc         1 HU3       0.043700
     21 H2         -10.0310   -24.8150    38.6500 hc         1 HU3       0.043700
     22 H4          -8.1560   -29.4100    32.5400 ha         1 HU3       0.142000
     23 H5          -9.2990   -28.5050    34.2980 hn         1 HU3       0.432800
     24 H6         -12.0510   -27.6730    34.1830 h1         1 HU3       0.054200
     25 H7         -11.8650   -29.1590    35.1170 h1         1 HU3       0.054200
     26 H8         -10.1440   -28.0550    36.5160 hc         1 HU3       0.060700
     27 H9         -12.5880   -26.2780    36.3450 h1         1 HU3       0.032700
     28 H10        -12.1760   -25.7740    38.6100 hc         1 HU3       0.046700
     29 H11        -11.2140   -27.2180    38.8640 hc         1 HU3       0.046700
     30 H12         -9.2530   -24.3930    36.3460 hc         1 HU3       0.043200
     31 H13        -10.9990   -24.3990    36.3630 hc         1 HU3       0.043200
     32 H14         -9.0880   -26.4130    35.2000 hc         1 HU3       0.045700
     33 H15        -10.5890   -25.8110    34.5340 hc         1 HU3       0.045700
     34 H16        -13.5100   -27.8800    37.7200 ho         1 HU3       0.408000
     35 H18        -10.2930   -31.4090    29.3660 ha         1 HU3       0.154000
     36 H17        -13.0890   -31.2630    29.8400 hn         1 HU3       0.324700
     37 H3         -13.3900   -29.2030    33.2900 h4         1 HU3       0.047800
@<TRIPOS>BOND
     1     1    11 1   
     2     1    12 1   
     3     1    20 1   
     4     1    21 1   
     5     2    15 1   
     6     2    16 2   
     7     2    37 1   
     8     3     4 1   
     9     4     5 ar  
    10     4    19 ar  
    11     5     6 ar  
    12     5    22 1   
    13     6     7 1   
    14     6    15 ar  
    15     7     8 1   
    16     7    23 1   
    17     8     9 1   
    18     8    24 1   
    19     8    25 1   
    20     9    10 1   
    21     9    13 1   
    22     9    26 1   
    23    10    11 1   
    24    10    14 1   
    25    10    27 1   
    26    11    28 1   
    27    11    29 1   
    28    12    13 1   
    29    12    30 1   
    30    12    31 1   
    31    13    32 1   
    32    13    33 1   
    33    14    34 1   
    34    15    18 ar  
    35    16    17 1   
    36    17    18 1   
    37    17    36 1   
    38    18    19 ar  
    39    19    35 1   
@<TRIPOS>SUBSTRUCTURE
     1 HU3         1 TEMP              0 ****  ****    0 ROOT
