@<TRIPOS>MOLECULE
HU3
   37    39     1     0     0
SMALL
No Charge or Current Charge


@<TRIPOS>ATOM
      1 C10        -10.2020   -25.9230    38.2230 c6         1 HU3      -0.069400
      2 C15        -12.5260   -30.7650    33.0310 cc         1 HU3       0.367800
      3 Br1         -8.1110   -29.2920    29.1150 br         1 HU3      -0.111100
      4 C02         -9.4610   -29.6820    30.4100 ca         1 HU3       0.087100
      5 C03         -9.3940   -29.0900    31.6930 ca         1 HU3      -0.256000
      6 C04        -10.3830   -29.3630    32.6540 ca         1 HU3       0.429000
      7 N05        -10.3080   -28.7760    33.9070 nu         1 HU3      -0.971200
      8 C06        -11.3710   -27.9380    34.4950 c3         1 HU3       0.235800
      9 C07        -10.9570   -27.3590    35.8820 c6         1 HU3      -0.074700
     10 C08        -12.1090   -26.5610    36.5640 c6         1 HU3       0.177300
     11 C09        -11.7270   -26.1450    38.0180 c6         1 HU3      -0.112400
     12 C11         -9.5250   -25.4330    36.9260 c6         1 HU3      -0.077400
     13 C12         -9.6700   -26.4700    35.7760 c6         1 HU3      -0.076400
     14 O13        -13.3220   -27.3200    36.5970 oh         1 HU3      -0.664000
     15 C14        -11.4080   -30.2380    32.2970 ca         1 HU3      -0.293900
     16 N16        -13.2560   -31.6120    32.2850 nd         1 HU3      -0.527100
     17 N17        -12.5830   -31.6230    31.0550 na         1 HU3      -0.066400
     18 C18        -11.4730   -30.8090    31.0670 ca         1 HU3       0.009800
     19 C19        -10.5160   -30.5570    30.0800 ca         1 HU3      -0.186000
     20 H1          -9.7310   -26.8630    38.5430 hc         1 HU3       0.043700
     21 H2         -10.0350   -25.2030    39.0360 hc         1 HU3       0.043700
     22 H4          -8.5770   -28.4170    31.9320 ha         1 HU3       0.124000
     23 H5          -9.3660   -28.4550    34.1250 hn         1 HU3       0.488000
     24 H6         -11.6070   -27.1020    33.8210 h1         1 HU3       0.054200
     25 H7         -12.2860   -28.5310    34.6160 h1         1 HU3       0.054200
     26 H8         -10.7330   -28.2280    36.5180 hc         1 HU3       0.060700
     27 H9         -12.2680   -25.6450    35.9760 h1         1 HU3       0.032700
     28 H10        -12.2700   -25.2250    38.2750 hc         1 HU3       0.046700
     29 H11        -12.0650   -26.9060    38.7360 hc         1 HU3       0.046700
     30 H12         -8.4620   -25.2220    37.1080 hc         1 HU3       0.043200
     31 H13         -9.9790   -24.4790    36.6220 hc         1 HU3       0.043200
     32 H14         -8.7850   -27.1220    35.7670 hc         1 HU3       0.045700
     33 H15         -9.6570   -25.9300    34.8190 hc         1 HU3       0.045700
     34 H16        -13.9930   -26.7560    37.0410 ho         1 HU3       0.447000
     35 H18        -10.5760   -31.0230    29.0990 ha         1 HU3       0.136000
     36 H17        -12.9070   -32.1870    30.2700 hn         1 HU3       0.375000
     37 H3         -12.8460   -30.6040    34.0520 h4         1 HU3       0.047800
@<TRIPOS>BOND
     1     1    11 1   
     2     1    12 1   
     3     1    20 1   
     4     1    21 1   
     5     2    15 1   
     6     2    16 2   
     7     2    37 1   
     8     3     4 1   
     9     4     5 ar  
    10     4    19 ar  
    11     5     6 ar  
    12     5    22 1   
    13     6     7 1   
    14     6    15 ar  
    15     7     8 1   
    16     7    23 1   
    17     8     9 1   
    18     8    24 1   
    19     8    25 1   
    20     9    10 1   
    21     9    13 1   
    22     9    26 1   
    23    10    11 1   
    24    10    14 1   
    25    10    27 1   
    26    11    28 1   
    27    11    29 1   
    28    12    13 1   
    29    12    30 1   
    30    12    31 1   
    31    13    32 1   
    32    13    33 1   
    33    14    34 1   
    34    15    18 ar  
    35    16    17 1   
    36    17    18 1   
    37    17    36 1   
    38    18    19 ar  
    39    19    35 1   
@<TRIPOS>SUBSTRUCTURE
     1 HU3         1 TEMP              0 ****  ****    0 ROOT
