@<TRIPOS>MOLECULE
HU4
   86    89     1     0     0
SMALL
No Charge or Current Charge


@<TRIPOS>ATOM
      1 C1         192.0210   -10.7750    48.8110 c          1 HU4       0.637100
      2 O2         192.4260   -11.8890    48.5240 o          1 HU4      -0.545000
      3 O3         190.7230   -10.3880    48.9980 os         1 HU4      -0.482100
      4 C4         189.6090   -11.2980    48.8440 c3         1 HU4       0.219000
      5 C5         189.7180   -12.4380    49.8890 c3         1 HU4      -0.108433
      6 C6         188.3640   -10.4320    49.1380 c3         1 HU4      -0.108433
      7 C7         189.5590   -11.8160    47.3830 c3         1 HU4      -0.108433
      8 N8         192.8180    -9.6870    49.0170 ns         1 HU4      -0.480900
      9 C9         194.2930    -9.6750    48.9060 c3         1 HU4       0.060700
     10 C10        194.7500    -9.1080    47.5120 c6         1 HU4      -0.064700
     11 C11        196.2950    -8.9390    47.4000 c6         1 HU4      -0.072900
     12 C12        194.2230    -9.9680    46.3220 c6         1 HU4      -0.072900
     13 C13        196.7170    -8.3580    46.0290 c6         1 HU4      -0.072900
     14 C14        194.6550    -9.3880    44.9520 c6         1 HU4      -0.072900
     15 C15        196.1910    -9.2290    44.8670 c6         1 HU4      -0.076400
     16 C16        194.8700    -8.8740    50.1190 c          1 HU4       0.582100
     17 O17        194.3170    -7.8490    50.5080 o          1 HU4      -0.629100
     18 N18        196.0780    -9.2950    50.7280 n          1 HU4      -0.384800
     19 C19        196.6110   -10.7050    50.5820 c5         1 HU4       0.093000
     20 C20        196.7660    -8.3970    51.7420 c5         1 HU4       0.038700
     21 C21        197.4710    -9.4720    52.5890 cy         1 HU4      -0.118700
     22 C22        197.6030   -10.7340    51.7570 cy         1 HU4       0.143300
     23 O23        197.2260   -11.5400    52.9340 oq         1 HU4      -0.445000
     24 C24        196.7000   -10.3620    53.6330 cy         1 HU4       0.170000
     25 C25        197.2140   -10.2970    55.0810 c3         1 HU4      -0.095600
     26 C26        195.1540   -10.3330    53.6440 c3         1 HU4      -0.095600
     27 C27        197.8290    -7.4670    51.0860 c          1 HU4       0.591100
     28 O28        198.5050    -7.7030    50.0940 o          1 HU4      -0.600100
     29 N29        197.9430    -6.2980    51.8110 ns         1 HU4      -0.486900
     30 C30        198.7050    -5.1090    51.3620 c3         1 HU4       0.019700
     31 C31        197.7760    -4.0590    50.6910 c3         1 HU4      -0.069400
     32 C32        196.9870    -4.5820    49.4720 cy         1 HU4      -0.088700
     33 C33        197.7600    -4.9240    48.1510 cy         1 HU4      -0.086900
     34 C34        196.2090    -3.5430    48.5950 cy         1 HU4      -0.086900
     35 C35        196.4310    -4.5470    47.4160 cy         1 HU4      -0.093400
     36 C37        199.4990    -4.4930    52.5460 c          1 HU4       0.486100
     37 O38        201.1840    -3.4500    51.0220 o          1 HU4      -0.580100
     38 N39        201.4080    -2.9950    53.2080 nt         1 HU4      -0.584000
     39 C40        200.7730    -3.6010    52.1660 c          1 HU4       0.502100
     40 H51        188.7780   -13.0010    49.9390 hc         1 HU4       0.050811
     41 H52        190.5090   -13.1520    49.6370 hc         1 HU4       0.050811
     42 H53        189.9220   -12.0330    50.8870 hc         1 HU4       0.050811
     43 H61        187.4460   -11.0240    49.0490 hc         1 HU4       0.050811
     44 H62        188.4060   -10.0210    50.1540 hc         1 HU4       0.050811
     45 H63        188.2980    -9.5940    48.4330 hc         1 HU4       0.050811
     46 H71        188.6050   -12.3220    47.1890 hc         1 HU4       0.050811
     47 H72        189.6530   -10.9860    46.6720 hc         1 HU4       0.050811
     48 H73        190.3560   -12.5390    47.1770 hc         1 HU4       0.050811
     49 HN8        192.3430    -8.8340    49.2820 hn         1 HU4       0.328500
     50 H9         194.6460   -10.7090    48.9770 h1         1 HU4       0.086700
     51 H10        194.3010    -8.1070    47.4340 hc         1 HU4       0.063700
     52 H111       196.6640    -8.2700    48.1870 hc         1 HU4       0.046950
     53 H112       196.7900    -9.9080    47.5490 hc         1 HU4       0.046950
     54 H121       194.5890   -10.9990    46.4170 hc         1 HU4       0.046950
     55 H122       193.1270   -10.0240    46.3440 hc         1 HU4       0.046950
     56 H131       196.3350    -7.3330    45.9260 hc         1 HU4       0.041450
     57 H132       197.8120    -8.2870    45.9770 hc         1 HU4       0.041450
     58 H141       194.3040   -10.0430    44.1430 hc         1 HU4       0.041450
     59 H142       194.1730    -8.4130    44.7940 hc         1 HU4       0.041450
     60 H151       196.4670    -8.7750    43.9050 hc         1 HU4       0.039200
     61 H152       196.6690   -10.2180    44.8960 hc         1 HU4       0.039200
     62 H191       195.8170   -11.4560    50.6850 h1         1 HU4       0.077200
     63 H192       197.1030   -10.8510    49.6120 h1         1 HU4       0.077200
     64 H20        196.0530    -7.7910    52.3160 h1         1 HU4       0.089700
     65 H21        198.4290    -9.1200    52.9880 hc         1 HU4       0.088700
     66 H22        198.6250   -10.9530    51.4270 h1         1 HU4       0.085700
     67 H251       196.7620   -11.0790    55.7030 hc         1 HU4       0.048200
     68 H252       198.3010   -10.4300    55.1220 hc         1 HU4       0.048200
     69 H253       196.9800    -9.3270    55.5360 hc         1 HU4       0.048200
     70 H261       194.7490   -11.0460    54.3720 hc         1 HU4       0.048200
     71 H262       194.7840    -9.3380    53.9170 hc         1 HU4       0.048200
     72 H263       194.7230   -10.5940    52.6720 hc         1 HU4       0.048200
     73 HN29       197.3820    -6.2180    52.6530 hn         1 HU4       0.325500
     74 H30        199.4560    -5.4240    50.6240 h1         1 HU4       0.127700
     75 H311       197.0690    -3.6840    51.4410 hc         1 HU4       0.052200
     76 H312       198.3810    -3.1960    50.3850 hc         1 HU4       0.052200
     77 H32        196.3370    -5.3980    49.8130 hc         1 HU4       0.074700
     78 H331       198.6070    -4.2630    47.9300 hc         1 HU4       0.052450
     79 H332       198.0880    -5.9620    48.0360 hc         1 HU4       0.052450
     80 H341       195.1670    -3.3600    48.8790 hc         1 HU4       0.052450
     81 H342       196.7110    -2.5760    48.4700 hc         1 HU4       0.052450
     82 H351       196.5410    -4.1050    46.4210 hc         1 HU4       0.047700
     83 H352       195.6930    -5.3570    47.3620 hc         1 HU4       0.047700
     84 H391       202.2200    -2.4200    53.0330 hn         1 HU4       0.330000
     85 H392       201.0670    -3.1270    54.1510 hn         1 HU4       0.330000
     86 O36        199.1790    -4.6870    53.7220 o          1 HU4      -0.507100
@<TRIPOS>BOND
     1     1     2 2   
     2     1     3 1   
     3     1     8 1   
     4     3     4 1   
     5     4     5 1   
     6     4     6 1   
     7     4     7 1   
     8     5    40 1   
     9     5    41 1   
    10     5    42 1   
    11     6    43 1   
    12     6    44 1   
    13     6    45 1   
    14     7    46 1   
    15     7    47 1   
    16     7    48 1   
    17     8     9 1   
    18     8    49 1   
    19     9    10 1   
    20     9    16 1   
    21     9    50 1   
    22    10    11 1   
    23    10    12 1   
    24    10    51 1   
    25    11    13 1   
    26    11    52 1   
    27    11    53 1   
    28    12    14 1   
    29    12    54 1   
    30    12    55 1   
    31    13    15 1   
    32    13    56 1   
    33    13    57 1   
    34    14    15 1   
    35    14    58 1   
    36    14    59 1   
    37    15    60 1   
    38    15    61 1   
    39    16    17 2   
    40    16    18 1   
    41    18    19 1   
    42    18    20 1   
    43    19    22 1   
    44    19    62 1   
    45    19    63 1   
    46    20    21 1   
    47    20    27 1   
    48    20    64 1   
    49    21    22 1   
    50    21    24 1   
    51    21    65 1   
    52    22    23 1   
    53    22    66 1   
    54    23    24 1   
    55    24    25 1   
    56    24    26 1   
    57    25    67 1   
    58    25    68 1   
    59    25    69 1   
    60    26    70 1   
    61    26    71 1   
    62    26    72 1   
    63    27    28 2   
    64    27    29 1   
    65    29    30 1   
    66    29    73 1   
    67    30    31 1   
    68    30    36 1   
    69    30    74 1   
    70    31    32 1   
    71    31    75 1   
    72    31    76 1   
    73    32    33 1   
    74    32    34 1   
    75    32    77 1   
    76    33    35 1   
    77    33    78 1   
    78    33    79 1   
    79    34    35 1   
    80    34    80 1   
    81    34    81 1   
    82    35    82 1   
    83    35    83 1   
    84    36    39 1   
    85    36    86 2   
    86    37    39 2   
    87    38    39 1   
    88    38    84 1   
    89    38    85 1   
@<TRIPOS>SUBSTRUCTURE
     1 HU4         1 TEMP              0 ****  ****    0 ROOT
