@<TRIPOS>MOLECULE
HU4
   86    89     1     0     0
SMALL
abcg2


@<TRIPOS>ATOM
      1 C1         192.4980   -10.5930    49.0630 c          1 HU4       0.637100
      2 O2         193.0890   -11.5000    49.6280 o          1 HU4      -0.545000
      3 O3         191.1790   -10.3440    49.1400 os         1 HU4      -0.482100
      4 C4         190.2830   -11.1440    49.9980 c3         1 HU4       0.219000
      5 C5         190.7210   -11.0340    51.4550 c3         1 HU4      -0.108433
      6 C6         188.9350   -10.4630    49.7930 c3         1 HU4      -0.108433
      7 C7         190.2360   -12.5850    49.5050 c3         1 HU4      -0.108433
      8 N8         193.0970    -9.6960    48.2380 ns         1 HU4      -0.480900
      9 C9         194.5450    -9.5840    48.1930 c3         1 HU4       0.060700
     10 C10        195.0000    -8.8460    46.9270 c6         1 HU4      -0.064700
     11 C11        196.5180    -8.6270    46.9340 c6         1 HU4      -0.072900
     12 C12        194.5750    -9.6050    45.6640 c6         1 HU4      -0.072900
     13 C13        196.9930    -7.9230    45.6620 c6         1 HU4      -0.072900
     14 C14        195.0480    -8.8970    44.3930 c6         1 HU4      -0.072900
     15 C15        196.5620    -8.6800    44.4060 c6         1 HU4      -0.076400
     16 C16        195.0180    -8.8370    49.4470 c          1 HU4       0.582100
     17 O17        194.5800    -7.7080    49.6860 o          1 HU4      -0.629100
     18 N18        195.8890    -9.4450    50.2720 n          1 HU4      -0.384800
     19 C19        196.5660   -10.7350    50.0850 c5         1 HU4       0.093000
     20 C20        196.3730    -8.7440    51.4610 c5         1 HU4       0.038700
     21 C21        196.9290    -9.8510    52.3560 cy         1 HU4      -0.118700
     22 C22        197.0330   -11.1110    51.4790 cy         1 HU4       0.143300
     23 O23        196.0150   -11.7900    52.2520 oq         1 HU4      -0.445000
     24 C24        195.9110   -10.6670    53.2010 cy         1 HU4       0.170000
     25 C25        196.4550   -11.0740    54.5560 c3         1 HU4      -0.095600
     26 C26        194.4830   -10.1720    53.2870 c3         1 HU4      -0.095600
     27 C27        197.4600    -7.7380    51.0770 c          1 HU4       0.591100
     28 O28        198.3430    -8.0280    50.2740 o          1 HU4      -0.600100
     29 N29        197.3690    -6.5480    51.6990 ns         1 HU4      -0.486900
     30 C30        198.2340    -5.4310    51.4010 c3         1 HU4       0.019700
     31 C31        197.4550    -4.2880    50.7110 c3         1 HU4      -0.069400
     32 C32        196.8940    -4.7060    49.3660 cy         1 HU4      -0.088700
     33 C33        197.8700    -4.9450    48.1840 cy         1 HU4      -0.086900
     34 C34        196.1850    -3.6260    48.5100 cy         1 HU4      -0.086900
     35 C35        196.8470    -4.2460    47.2550 cy         1 HU4      -0.093400
     36 C37        198.8790    -4.8990    52.6590 c          1 HU4       0.486100
     37 O38        200.6890    -3.9730    51.3540 o          1 HU4      -0.580100
     38 N39        200.5400    -3.3960    53.5560 nt         1 HU4      -0.584000
     39 C40        200.1430    -4.0270    52.4500 c          1 HU4       0.502100
     40 H51        189.9660   -11.5020    52.0890 hc         1 HU4       0.050811
     41 H52        191.6750   -11.5270    51.6250 hc         1 HU4       0.050811
     42 H53        190.8080    -9.9850    51.7440 hc         1 HU4       0.050811
     43 H61        188.1740   -10.9730    50.3850 hc         1 HU4       0.050811
     44 H62        188.9810    -9.4200    50.1090 hc         1 HU4       0.050811
     45 H63        188.6430   -10.5010    48.7430 hc         1 HU4       0.050811
     46 H71        189.4670   -13.1260    50.0590 hc         1 HU4       0.050811
     47 H72        189.9770   -12.6120    48.4450 hc         1 HU4       0.050811
     48 H73        191.1900   -13.0870    49.6500 hc         1 HU4       0.050811
     49 HN8        192.5570    -8.8880    47.9670 hn         1 HU4       0.328500
     50 H9         194.9460   -10.5930    48.1690 h1         1 HU4       0.086700
     51 H10        194.5130    -7.8640    46.9260 hc         1 HU4       0.063700
     52 H111       196.8140    -8.0450    47.8090 hc         1 HU4       0.046950
     53 H112       197.0150    -9.6000    47.0170 hc         1 HU4       0.046950
     54 H121       195.0070   -10.6120    45.7010 hc         1 HU4       0.046950
     55 H122       193.4910    -9.7270    45.6460 hc         1 HU4       0.046950
     56 H131       196.5720    -6.9130    45.6350 hc         1 HU4       0.041450
     57 H132       198.0800    -7.8090    45.6880 hc         1 HU4       0.041450
     58 H141       194.7530    -9.4770    43.5150 hc         1 HU4       0.041450
     59 H142       194.5470    -7.9260    44.3150 hc         1 HU4       0.041450
     60 H151       196.8760    -8.1370    43.5100 hc         1 HU4       0.039200
     61 H152       197.0650    -9.6540    44.3810 hc         1 HU4       0.039200
     62 H191       195.8850   -11.4860    49.6920 h1         1 HU4       0.077200
     63 H192       197.4180   -10.6240    49.4120 h1         1 HU4       0.077200
     64 H20        195.5420    -8.2190    51.9250 h1         1 HU4       0.089700
     65 H21        197.8160    -9.5410    52.9010 hc         1 HU4       0.088700
     66 H22        197.9710   -11.6650    51.4740 h1         1 HU4       0.085700
     67 H251       195.8290   -11.8540    54.9930 hc         1 HU4       0.048200
     68 H252       197.4750   -11.4500    54.4660 hc         1 HU4       0.048200
     69 H253       196.4610   -10.2150    55.2310 hc         1 HU4       0.048200
     70 H261       193.8580   -10.9490    53.7320 hc         1 HU4       0.048200
     71 H262       194.4230    -9.2830    53.9190 hc         1 HU4       0.048200
     72 H263       194.0800    -9.9340    52.3030 hc         1 HU4       0.048200
     73 HN29       196.5780    -6.3790    52.3020 hn         1 HU4       0.325500
     74 H30        199.0160    -5.7840    50.7310 h1         1 HU4       0.127700
     75 H311       196.6450    -3.9720    51.3770 hc         1 HU4       0.052200
     76 H312       198.1210    -3.4330    50.5800 hc         1 HU4       0.052200
     77 H32        196.2400    -5.5710    49.4860 hc         1 HU4       0.074700
     78 H331       198.7800    -4.3520    48.3010 hc         1 HU4       0.052450
     79 H332       198.1430    -5.9740    47.9570 hc         1 HU4       0.052450
     80 H341       195.0960    -3.5910    48.5480 hc         1 HU4       0.052450
     81 H342       196.5810    -2.6310    48.7230 hc         1 HU4       0.052450
     82 H351       197.2370    -3.5620    46.5010 hc         1 HU4       0.047700
     83 H352       196.1890    -4.9670    46.7690 hc         1 HU4       0.047700
     84 H391       201.3680    -2.8210    53.5480 hn         1 HU4       0.330000
     85 H392       200.0390    -3.5320    54.4210 hn         1 HU4       0.330000
     86 O36        198.4510    -5.1000    53.7710 o          1 HU4      -0.507100
@<TRIPOS>BOND
     1     1     2 2   
     2     1     3 1   
     3     1     8 1   
     4     3     4 1   
     5     4     5 1   
     6     4     6 1   
     7     4     7 1   
     8     5    40 1   
     9     5    41 1   
    10     5    42 1   
    11     6    43 1   
    12     6    44 1   
    13     6    45 1   
    14     7    46 1   
    15     7    47 1   
    16     7    48 1   
    17     8     9 1   
    18     8    49 1   
    19     9    10 1   
    20     9    16 1   
    21     9    50 1   
    22    10    11 1   
    23    10    12 1   
    24    10    51 1   
    25    11    13 1   
    26    11    52 1   
    27    11    53 1   
    28    12    14 1   
    29    12    54 1   
    30    12    55 1   
    31    13    15 1   
    32    13    56 1   
    33    13    57 1   
    34    14    15 1   
    35    14    58 1   
    36    14    59 1   
    37    15    60 1   
    38    15    61 1   
    39    16    17 2   
    40    16    18 1   
    41    18    19 1   
    42    18    20 1   
    43    19    22 1   
    44    19    62 1   
    45    19    63 1   
    46    20    21 1   
    47    20    27 1   
    48    20    64 1   
    49    21    22 1   
    50    21    24 1   
    51    21    65 1   
    52    22    23 1   
    53    22    66 1   
    54    23    24 1   
    55    24    25 1   
    56    24    26 1   
    57    25    67 1   
    58    25    68 1   
    59    25    69 1   
    60    26    70 1   
    61    26    71 1   
    62    26    72 1   
    63    27    28 2   
    64    27    29 1   
    65    29    30 1   
    66    29    73 1   
    67    30    31 1   
    68    30    36 1   
    69    30    74 1   
    70    31    32 1   
    71    31    75 1   
    72    31    76 1   
    73    32    33 1   
    74    32    34 1   
    75    32    77 1   
    76    33    35 1   
    77    33    78 1   
    78    33    79 1   
    79    34    35 1   
    80    34    80 1   
    81    34    81 1   
    82    35    82 1   
    83    35    83 1   
    84    36    39 1   
    85    36    86 2   
    86    37    39 2   
    87    38    39 1   
    88    38    84 1   
    89    38    85 1   
@<TRIPOS>SUBSTRUCTURE
     1 HU4         1 TEMP              0 ****  ****    0 ROOT
