@<TRIPOS>MOLECULE
HU5
   82    84     1     0     0
SMALL
bcc


@<TRIPOS>ATOM
      1 C1           4.1200     0.4310     0.2300 c          1 HU5       0.779100
      2 O2           4.0710    -0.7750     0.0120 o          1 HU5      -0.657100
      3 N3           4.8710     1.3000    -0.4850 ns         1 HU5      -0.587900
      4 C4           5.7810     0.9480    -1.5770 c3         1 HU5       0.153400
      5 C5           6.9260     0.0620    -1.0820 c3         1 HU5      -0.104433
      6 C6           5.0300     0.2650    -2.7210 c3         1 HU5      -0.104433
      7 C7           6.3520     2.2710    -2.0870 c3         1 HU5      -0.104433
      8 N8           3.4100     1.0060     1.2560 ns         1 HU5      -0.556900
      9 C9           2.3480     0.2580     1.8850 c3         1 HU5       0.052700
     10 C10          1.9390     0.8900     3.2410 c3         1 HU5      -0.040000
     11 C11          3.1510     0.8460     4.1750 c3         1 HU5      -0.089433
     12 C12          1.4670     2.3410     3.1130 c3         1 HU5      -0.089433
     13 C13          0.8170     0.0560     3.8620 c3         1 HU5      -0.089433
     14 C14          1.1770     0.1410     0.9050 c          1 HU5       0.655100
     15 O15          0.7480     1.1370     0.3330 o          1 HU5      -0.628100
     16 N16          0.6480    -1.0710     0.6650 n          1 HU5      -0.452800
     17 C17          1.0780    -2.3560     1.2130 c5         1 HU5       0.134000
     18 C18         -0.4600    -1.1710    -0.2620 c5         1 HU5       0.060700
     19 C19         -0.6730    -2.6570    -0.4560 cx         1 HU5      -0.136700
     20 C20          0.2820    -3.3830     0.4460 cx         1 HU5      -0.125700
     21 C21          0.4460    -3.4700    -1.0450 cx         1 HU5      -0.077000
     22 C22          0.0220    -4.7810    -1.6690 c3         1 HU5      -0.066600
     23 C23          1.6100    -2.8180    -1.7530 c3         1 HU5      -0.066600
     24 C24         -1.7240    -0.5530     0.3260 c          1 HU5       0.669100
     25 O25         -1.9760    -0.5850     1.5180 o          1 HU5      -0.597100
     26 N26         -2.5540    -0.0260    -0.5860 ns         1 HU5      -0.556900
     27 C27         -3.8560     0.4750    -0.2430 c3         1 HU5       0.030700
     28 C28         -4.3890     1.3750    -1.3650 c3         1 HU5      -0.067400
     29 C29         -3.5460     2.6230    -1.5600 cy         1 HU5      -0.083700
     30 C30         -2.1550     2.5450    -2.2260 cy         1 HU5      -0.089400
     31 C31         -3.9630     3.6050    -2.6710 cy         1 HU5      -0.089400
     32 C32         -2.4700     3.8760    -2.9320 cy         1 HU5      -0.092400
     33 C34         -4.8120    -0.6750     0.0110 c          1 HU5       0.482100
     34 O35         -6.2370     0.7700     1.2850 o          1 HU5      -0.585100
     35 N36         -6.9640    -1.3390     0.8650 nt         1 HU5      -0.651000
     36 C37         -6.0950    -0.3360     0.7910 c          1 HU5       0.575100
     37 HN3          4.9140     2.2530    -0.1630 hn         1 HU5       0.307500
     38 H51          6.5650    -0.9030    -0.7320 hc         1 HU5       0.044144
     39 H52          7.6400    -0.1180    -1.8880 hc         1 HU5       0.044144
     40 H53          7.4630     0.5450    -0.2640 hc         1 HU5       0.044144
     41 H61          4.1940     0.8810    -3.0560 hc         1 HU5       0.044144
     42 H62          5.7000     0.1230    -3.5710 hc         1 HU5       0.044144
     43 H63          4.6390    -0.7080    -2.4290 hc         1 HU5       0.044144
     44 H71          6.8830     2.8080    -1.2990 hc         1 HU5       0.044144
     45 H72          7.0580     2.0870    -2.8960 hc         1 HU5       0.044144
     46 H73          5.5620     2.9190    -2.4710 hc         1 HU5       0.044144
     47 HN8          3.2770     2.0050     1.2140 hn         1 HU5       0.305500
     48 H9           2.7400    -0.7330     2.1170 h1         1 HU5       0.085700
     49 H111         3.9840     1.4380     3.7950 hc         1 HU5       0.040478
     50 H112         2.8800     1.2440     5.1550 hc         1 HU5       0.040478
     51 H113         3.5050    -0.1770     4.3210 hc         1 HU5       0.040478
     52 H121         0.5920     2.4390     2.4730 hc         1 HU5       0.040478
     53 H122         1.2030     2.7230     4.1010 hc         1 HU5       0.040478
     54 H123         2.2450     3.0020     2.7240 hc         1 HU5       0.040478
     55 H131         1.1380    -0.9730     4.0410 hc         1 HU5       0.040478
     56 H132         0.5340     0.4800     4.8270 hc         1 HU5       0.040478
     57 H133        -0.0790     0.0250     3.2400 hc         1 HU5       0.040478
     58 H171         2.1550    -2.4810     1.0850 h1         1 HU5       0.064200
     59 H172         0.8490    -2.4330     2.2770 h1         1 HU5       0.064200
     60 H18         -0.2080    -0.6700    -1.2030 h1         1 HU5       0.081700
     61 H19         -1.6920    -2.9990    -0.6000 hc         1 HU5       0.107700
     62 H20         -0.0270    -4.2690     0.9880 hc         1 HU5       0.097700
     63 H221        -0.2620    -4.6430    -2.7140 hc         1 HU5       0.042700
     64 H222         0.8390    -5.5050    -1.6390 hc         1 HU5       0.042700
     65 H223        -0.8300    -5.2200    -1.1480 hc         1 HU5       0.042700
     66 H231         1.9740    -1.9180    -1.2640 hc         1 HU5       0.042700
     67 H232         2.4510    -3.5130    -1.8070 hc         1 HU5       0.042700
     68 H233         1.3330    -2.5550    -2.7760 hc         1 HU5       0.042700
     69 HN26        -2.3110    -0.0910    -1.5610 hn         1 HU5       0.322500
     70 H27         -3.7840     1.0740     0.6680 h1         1 HU5       0.116700
     71 H281        -4.4430     0.8060    -2.3000 hc         1 HU5       0.054700
     72 H282        -5.4100     1.6760    -1.1230 hc         1 HU5       0.054700
     73 H29         -3.4670     3.1570    -0.6080 hc         1 HU5       0.066700
     74 H301        -1.2810     2.4890    -1.5760 hc         1 HU5       0.050950
     75 H302        -2.1040     1.7260    -2.9490 hc         1 HU5       0.050950
     76 H311        -4.4210     3.0740    -3.5090 hc         1 HU5       0.050950
     77 H312        -4.6040     4.4440    -2.3970 hc         1 HU5       0.050950
     78 H321        -2.1100     4.7320    -2.3590 hc         1 HU5       0.049200
     79 H322        -2.1480     3.9920    -3.9670 hc         1 HU5       0.049200
     80 H361        -6.7740    -2.2320     0.4420 hn         1 HU5       0.326500
     81 H362        -7.8290    -1.2300     1.3710 hn         1 HU5       0.326500
     82 O33         -4.6040    -1.7990    -0.3650 o          1 HU5      -0.504100
@<TRIPOS>BOND
     1     1     2 2   
     2     1     3 1   
     3     1     8 1   
     4     3     4 1   
     5     3    37 1   
     6     4     5 1   
     7     4     6 1   
     8     4     7 1   
     9     5    38 1   
    10     5    39 1   
    11     5    40 1   
    12     6    41 1   
    13     6    42 1   
    14     6    43 1   
    15     7    44 1   
    16     7    45 1   
    17     7    46 1   
    18     8     9 1   
    19     8    47 1   
    20     9    10 1   
    21     9    14 1   
    22     9    48 1   
    23    10    11 1   
    24    10    12 1   
    25    10    13 1   
    26    11    49 1   
    27    11    50 1   
    28    11    51 1   
    29    12    52 1   
    30    12    53 1   
    31    12    54 1   
    32    13    55 1   
    33    13    56 1   
    34    13    57 1   
    35    14    15 2   
    36    14    16 1   
    37    16    17 1   
    38    16    18 1   
    39    17    20 1   
    40    17    58 1   
    41    17    59 1   
    42    18    19 1   
    43    18    24 1   
    44    18    60 1   
    45    19    20 1   
    46    19    21 1   
    47    19    61 1   
    48    20    21 1   
    49    20    62 1   
    50    21    22 1   
    51    21    23 1   
    52    22    63 1   
    53    22    64 1   
    54    22    65 1   
    55    23    66 1   
    56    23    67 1   
    57    23    68 1   
    58    24    25 2   
    59    24    26 1   
    60    26    27 1   
    61    26    69 1   
    62    27    28 1   
    63    27    33 1   
    64    27    70 1   
    65    28    29 1   
    66    28    71 1   
    67    28    72 1   
    68    29    30 1   
    69    29    31 1   
    70    29    73 1   
    71    30    32 1   
    72    30    74 1   
    73    30    75 1   
    74    31    32 1   
    75    31    76 1   
    76    31    77 1   
    77    32    78 1   
    78    32    79 1   
    79    33    36 1   
    80    33    82 2   
    81    34    36 2   
    82    35    36 1   
    83    35    80 1   
    84    35    81 1   
@<TRIPOS>SUBSTRUCTURE
     1 HU5         1 TEMP              0 ****  ****    0 ROOT
