@<TRIPOS>MOLECULE
HU5
   82    84     1     0     0
SMALL
No Charge or Current Charge


@<TRIPOS>ATOM
      1 C1           4.7890     0.5430    -0.0020 c          1 HU5       0.645100
      2 O2           5.3010    -0.3970     0.5810 o          1 HU5      -0.657100
      3 N3           5.4530     1.4000    -0.8450 ns         1 HU5      -0.520900
      4 C4           6.8790     1.3730    -1.1940 c3         1 HU5       0.153400
      5 C5           7.7520     1.5700     0.0710 c3         1 HU5      -0.104433
      6 C6           7.2420     0.0440    -1.9030 c3         1 HU5      -0.104433
      7 C7           7.1300     2.5490    -2.1670 c3         1 HU5      -0.104433
      8 N8           3.4640     0.8640     0.1070 ns         1 HU5      -0.489900
      9 C9           2.4770     0.1450     0.9500 c3         1 HU5       0.052700
     10 C10          2.2060     0.9010     2.3110 c3         1 HU5      -0.040000
     11 C11          3.5460     1.2130     3.0370 c3         1 HU5      -0.089433
     12 C12          1.4600     2.2420     2.0600 c3         1 HU5      -0.089433
     13 C13          1.3500     0.0330     3.2720 c3         1 HU5      -0.089433
     14 C14          1.1880    -0.1070     0.0920 c          1 HU5       0.588100
     15 O15          0.8620     0.6740    -0.7980 o          1 HU5      -0.628100
     16 N16          0.3650    -1.2180     0.3830 n          1 HU5      -0.385800
     17 C17          0.9390    -2.4950     0.8800 c5         1 HU5       0.134000
     18 C18         -0.9640    -1.3750    -0.2900 c5         1 HU5       0.060700
     19 C19         -1.2750    -2.8800    -0.1440 cx         1 HU5      -0.136700
     20 C20         -0.1270    -3.5500     0.5590 cx         1 HU5      -0.125700
     21 C21         -0.3910    -3.8530    -0.9090 cx         1 HU5      -0.077000
     22 C22         -0.9770    -5.2200    -1.2610 c3         1 HU5      -0.066600
     23 C23          0.5600    -3.4030    -2.0330 c3         1 HU5      -0.066600
     24 C24         -2.0800    -0.4840     0.3430 c          1 HU5       0.602100
     25 O25         -2.0370     0.1380     1.3970 o          1 HU5      -0.597100
     26 N26         -3.2040    -0.5290    -0.4580 ns         1 HU5      -0.489900
     27 C27         -4.4900     0.1450    -0.1590 c3         1 HU5       0.030700
     28 C28         -4.6920     1.4360    -0.9970 c3         1 HU5      -0.067400
     29 C29         -3.7020     2.5780    -0.6900 cy         1 HU5      -0.083700
     30 C30         -2.2450     2.5200    -1.2690 cy         1 HU5      -0.089400
     31 C31         -3.8390     3.8980    -1.5240 cy         1 HU5      -0.089400
     32 C32         -2.3060     4.0810    -1.2820 cy         1 HU5      -0.092400
     33 C34         -5.6670    -0.8490    -0.3640 c          1 HU5       0.482100
     34 O35         -7.1380     0.3860     1.2370 o          1 HU5      -0.585100
     35 N36         -8.0640    -1.3690     0.1880 nt         1 HU5      -0.584000
     36 C37         -7.0160    -0.5350     0.4380 c          1 HU5       0.508100
     37 HN3          4.8950     2.1330    -1.2590 hn         1 HU5       0.307500
     38 H51          7.6520     0.7300     0.7670 hc         1 HU5       0.044144
     39 H52          8.8120     1.6510    -0.1980 hc         1 HU5       0.044144
     40 H53          7.4670     2.4870     0.6020 hc         1 HU5       0.044144
     41 H61          6.5950    -0.1220    -2.7730 hc         1 HU5       0.044144
     42 H62          8.2820     0.0630    -2.2530 hc         1 HU5       0.044144
     43 H63          7.1360    -0.8150    -1.2320 hc         1 HU5       0.044144
     44 H71          6.8770     3.5070    -1.6970 hc         1 HU5       0.044144
     45 H72          8.1830     2.5890    -2.4710 hc         1 HU5       0.044144
     46 H73          6.5210     2.4440    -3.0740 hc         1 HU5       0.044144
     47 HN8          3.1260     1.6350    -0.4540 hn         1 HU5       0.305500
     48 H9           2.9020    -0.8360     1.1910 h1         1 HU5       0.085700
     49 H111         4.1620     1.9180     2.4660 hc         1 HU5       0.040478
     50 H112         3.3650     1.6640     4.0210 hc         1 HU5       0.040478
     51 H113         4.1300     0.2970     3.1920 hc         1 HU5       0.040478
     52 H121         0.4680     2.0730     1.6240 hc         1 HU5       0.040478
     53 H122         1.3170     2.7910     2.9990 hc         1 HU5       0.040478
     54 H123         2.0250     2.8900     1.3790 hc         1 HU5       0.040478
     55 H131         1.8480    -0.9190     3.4910 hc         1 HU5       0.040478
     56 H132         1.1920     0.5490     4.2280 hc         1 HU5       0.040478
     57 H133         0.3600    -0.1790     2.8550 hc         1 HU5       0.040478
     58 H171         1.8990    -2.7220     0.3960 h1         1 HU5       0.064200
     59 H172         1.1250    -2.4420     1.9590 h1         1 HU5       0.064200
     60 H18         -0.8970    -1.0880    -1.3480 h1         1 HU5       0.081700
     61 H19         -2.2880    -3.1990     0.0960 hc         1 HU5       0.107700
     62 H20         -0.3390    -4.3300     1.2870 hc         1 HU5       0.097700
     63 H221        -1.5400    -5.1770    -2.2010 hc         1 HU5       0.042700
     64 H222        -0.1850    -5.9700    -1.3750 hc         1 HU5       0.042700
     65 H223        -1.6610    -5.5790    -0.4830 hc         1 HU5       0.042700
     66 H231         1.0300    -2.4310    -1.8580 hc         1 HU5       0.042700
     67 H232         1.3700    -4.1290    -2.1670 hc         1 HU5       0.042700
     68 H233         0.0220    -3.3290    -2.9860 hc         1 HU5       0.042700
     69 HN26        -3.1500    -1.1070    -1.2900 hn         1 HU5       0.322500
     70 H27         -4.5090     0.4190     0.9050 h1         1 HU5       0.116700
     71 H281        -4.6480     1.1820    -2.0640 hc         1 HU5       0.054700
     72 H282        -5.7080     1.8110    -0.8180 hc         1 HU5       0.054700
     73 H29         -3.7250     2.7580     0.3930 hc         1 HU5       0.066700
     74 H301        -1.4820     2.0900    -0.6140 hc         1 HU5       0.050950
     75 H302        -2.1600     2.0560    -2.2590 hc         1 HU5       0.050950
     76 H311        -4.1200     3.7510    -2.5740 hc         1 HU5       0.050950
     77 H312        -4.4880     4.6700    -1.0950 hc         1 HU5       0.050950
     78 H321        -2.0470     4.5560    -0.3280 hc         1 HU5       0.049200
     79 H322        -1.7490     4.5770    -2.0840 hc         1 HU5       0.049200
     80 H361        -7.9560    -2.1300    -0.4690 hn         1 HU5       0.326500
     81 H362        -8.9420    -1.2230     0.6650 hn         1 HU5       0.326500
     82 O33         -5.5680    -1.8400    -1.0920 o          1 HU5      -0.504100
@<TRIPOS>BOND
     1     1     2 2   
     2     1     3 1   
     3     1     8 1   
     4     3     4 1   
     5     3    37 1   
     6     4     5 1   
     7     4     6 1   
     8     4     7 1   
     9     5    38 1   
    10     5    39 1   
    11     5    40 1   
    12     6    41 1   
    13     6    42 1   
    14     6    43 1   
    15     7    44 1   
    16     7    45 1   
    17     7    46 1   
    18     8     9 1   
    19     8    47 1   
    20     9    10 1   
    21     9    14 1   
    22     9    48 1   
    23    10    11 1   
    24    10    12 1   
    25    10    13 1   
    26    11    49 1   
    27    11    50 1   
    28    11    51 1   
    29    12    52 1   
    30    12    53 1   
    31    12    54 1   
    32    13    55 1   
    33    13    56 1   
    34    13    57 1   
    35    14    15 2   
    36    14    16 1   
    37    16    17 1   
    38    16    18 1   
    39    17    20 1   
    40    17    58 1   
    41    17    59 1   
    42    18    19 1   
    43    18    24 1   
    44    18    60 1   
    45    19    20 1   
    46    19    21 1   
    47    19    61 1   
    48    20    21 1   
    49    20    62 1   
    50    21    22 1   
    51    21    23 1   
    52    22    63 1   
    53    22    64 1   
    54    22    65 1   
    55    23    66 1   
    56    23    67 1   
    57    23    68 1   
    58    24    25 2   
    59    24    26 1   
    60    26    27 1   
    61    26    69 1   
    62    27    28 1   
    63    27    33 1   
    64    27    70 1   
    65    28    29 1   
    66    28    71 1   
    67    28    72 1   
    68    29    30 1   
    69    29    31 1   
    70    29    73 1   
    71    30    32 1   
    72    30    74 1   
    73    30    75 1   
    74    31    32 1   
    75    31    76 1   
    76    31    77 1   
    77    32    78 1   
    78    32    79 1   
    79    33    36 1   
    80    33    82 2   
    81    34    36 2   
    82    35    36 1   
    83    35    80 1   
    84    35    81 1   
@<TRIPOS>SUBSTRUCTURE
     1 HU5         1 TEMP              0 ****  ****    0 ROOT
