@<TRIPOS>MOLECULE
HU6
   37    39     1     0     0
SMALL
abcg2


@<TRIPOS>ATOM
      1 C10         25.1960     5.4450   -25.2200 c6         1 HU6       0.176300
      2 C12         25.5590     6.7300   -25.9430 c6         1 HU6      -0.070400
      3 C13         25.3900     7.9400   -25.0160 c6         1 HU6      -0.075400
      4 C14         25.7050     7.5930   -23.5550 c6         1 HU6      -0.078400
      5 C16         27.2480     2.7170   -20.0700 ca         1 HU6      -0.244000
      6 C15         26.7400     6.4780   -23.4740 c6         1 HU6      -0.066400
      7 C02         27.2330     2.6250   -18.6750 ca         1 HU6       0.080100
      8 C03         26.4810     3.4360   -17.8600 ca         1 HU6      -0.172000
      9 C04         25.7290     4.3990   -18.5420 ca         1 HU6       0.002800
     10 C05         25.7130     4.5530   -19.9430 ca         1 HU6      -0.280900
     11 C06         26.4930     3.6790   -20.7470 ca         1 HU6       0.414000
     12 C08         25.5920     4.2520   -23.0290 c3         1 HU6       0.223800
     13 C09         26.2060     5.1710   -24.0870 c6         1 HU6      -0.112700
     14 O11         25.1600     4.3970   -26.1690 oh         1 HU6      -0.660000
     15 C17         24.8630     5.6790   -20.1440 cc         1 HU6       0.361800
     16 N18         24.4100     6.1420   -19.0090 nd         1 HU6      -0.522100
     17 N19         24.9270     5.3680   -18.0520 na         1 HU6      -0.063400
     18 H1          24.1950     5.5770   -24.7760 h1         1 HU6       0.028700
     19 H2          26.5940     6.6600   -26.2940 hc         1 HU6       0.054200
     20 H3          24.9360     6.8460   -26.8330 hc         1 HU6       0.054200
     21 H4          26.0440     8.7450   -25.3580 hc         1 HU6       0.041700
     22 H5          24.3700     8.3230   -25.0890 hc         1 HU6       0.041700
     23 H6          26.0540     8.4790   -23.0210 hc         1 HU6       0.039200
     24 H7          24.7910     7.2780   -23.0430 hc         1 HU6       0.039200
     25 H9          27.0480     6.3060   -22.4400 hc         1 HU6       0.052200
     26 H10         27.6430     6.7910   -24.0050 hc         1 HU6       0.052200
     27 H11         26.4730     3.3570   -16.7820 ha         1 HU6       0.137000
     28 H13         24.8070     4.7750   -22.4890 h1         1 HU6       0.041200
     29 H14         25.0980     3.4000   -23.5120 h1         1 HU6       0.041200
     30 H15         27.0470     4.6360   -24.5430 hc         1 HU6       0.062700
     31 H16         24.8200     3.6040   -25.7460 ho         1 HU6       0.440000
     32 H17         24.5790     6.1710   -21.0600 h4         1 HU6       0.046800
     33 H18         24.7130     5.5540   -17.0850 hn         1 HU6       0.378000
     34 N07         26.5860     3.7550   -22.1020 nu         1 HU6      -0.958200
     35 H8          27.8510     2.0280   -20.6490 ha         1 HU6       0.126000
     36 BR1         28.3060     1.2860   -17.8720 br         1 HU6      -0.105100
     37 H12         27.2000     3.0660   -22.5090 hn         1 HU6       0.475000
@<TRIPOS>BOND
     1     1     2 1   
     2     1    13 1   
     3     1    14 1   
     4     1    18 1   
     5     2     3 1   
     6     2    19 1   
     7     2    20 1   
     8     3     4 1   
     9     3    21 1   
    10     3    22 1   
    11     4     6 1   
    12     4    23 1   
    13     4    24 1   
    14     5     7 ar  
    15     5    11 ar  
    16     5    35 1   
    17     6    13 1   
    18     6    25 1   
    19     6    26 1   
    20     7     8 ar  
    21     7    36 1   
    22     8     9 ar  
    23     8    27 1   
    24     9    10 ar  
    25     9    17 1   
    26    10    11 ar  
    27    10    15 1   
    28    11    34 1   
    29    12    13 1   
    30    12    28 1   
    31    12    29 1   
    32    12    34 1   
    33    13    30 1   
    34    14    31 1   
    35    15    16 2   
    36    15    32 1   
    37    16    17 1   
    38    17    33 1   
    39    34    37 1   
@<TRIPOS>SUBSTRUCTURE
     1 HU6         1 TEMP              0 ****  ****    0 ROOT
