@<TRIPOS>MOLECULE
HU6
   37    39     1     0     0
SMALL
No Charge or Current Charge


@<TRIPOS>ATOM
      1 C10         25.1840     5.3060   -25.1780 c6         1 HU6       0.176300
      2 C12         25.3670     6.4800   -26.1720 c6         1 HU6      -0.070400
      3 C13         25.2230     7.8560   -25.4590 c6         1 HU6      -0.075400
      4 C14         25.7090     7.8300   -23.9820 c6         1 HU6      -0.078400
      5 C16         27.1780     2.6540   -20.1100 ca         1 HU6      -0.244000
      6 C15         26.8110     6.7650   -23.7740 c6         1 HU6      -0.066400
      7 C02         26.9620     2.1860   -18.7920 ca         1 HU6       0.080100
      8 C03         26.1950     2.9400   -17.8800 ca         1 HU6      -0.172000
      9 C04         25.6680     4.1530   -18.3350 ca         1 HU6       0.002800
     10 C05         25.8740     4.5980   -19.6010 ca         1 HU6      -0.280900
     11 C06         26.6210     3.8740   -20.5300 ca         1 HU6       0.414000
     12 C08         25.7540     4.6150   -22.7800 c3         1 HU6       0.223800
     13 C09         26.2860     5.3170   -24.0640 c6         1 HU6      -0.112700
     14 O11         25.2070     4.0660   -25.8940 oh         1 HU6      -0.660000
     15 C17         25.2230     5.8770   -19.6770 cc         1 HU6       0.361800
     16 N18         24.6300     6.2030   -18.5160 nd         1 HU6      -0.522100
     17 N19         24.9170     5.1080   -17.6870 na         1 HU6      -0.063400
     18 H1          24.2000     5.4360   -24.7030 h1         1 HU6       0.028700
     19 H2          26.3580     6.4070   -26.6420 hc         1 HU6       0.054200
     20 H3          24.6340     6.4090   -26.9860 hc         1 HU6       0.054200
     21 H4          25.7870     8.6110   -26.0240 hc         1 HU6       0.041700
     22 H5          24.1730     8.1800   -25.4840 hc         1 HU6       0.041700
     23 H6          26.0800     8.8230   -23.6940 hc         1 HU6       0.039200
     24 H7          24.8630     7.6130   -23.3150 hc         1 HU6       0.039200
     25 H9          27.2160     6.8420   -22.7550 hc         1 HU6       0.052200
     26 H10         27.6540     6.9900   -24.4430 hc         1 HU6       0.052200
     27 H11         26.0280     2.5950   -16.8620 ha         1 HU6       0.137000
     28 H13         24.9860     5.2560   -22.3270 h1         1 HU6       0.041200
     29 H14         25.2680     3.6700   -23.0600 h1         1 HU6       0.041200
     30 H15         27.1400     4.7200   -24.4140 hc         1 HU6       0.062700
     31 H16         24.8720     3.3750   -25.2820 ho         1 HU6       0.440000
     32 H17         25.1530     6.5910   -20.4880 h4         1 HU6       0.046800
     33 H18         24.5920     5.0650   -16.7220 hn         1 HU6       0.378000
     34 N07         26.8320     4.3320   -21.8210 nu         1 HU6      -0.958200
     35 H8          27.7690     2.0620   -20.8010 ha         1 HU6       0.126000
     36 Br1         27.7220     0.5200   -18.2410 br         1 HU6      -0.105100
     37 H12         27.6610     3.9170   -22.2460 hn         1 HU6       0.475000
@<TRIPOS>BOND
     1     1     2 1   
     2     1    13 1   
     3     1    14 1   
     4     1    18 1   
     5     2     3 1   
     6     2    19 1   
     7     2    20 1   
     8     3     4 1   
     9     3    21 1   
    10     3    22 1   
    11     4     6 1   
    12     4    23 1   
    13     4    24 1   
    14     5     7 ar  
    15     5    11 ar  
    16     5    35 1   
    17     6    13 1   
    18     6    25 1   
    19     6    26 1   
    20     7     8 ar  
    21     7    36 1   
    22     8     9 ar  
    23     8    27 1   
    24     9    10 ar  
    25     9    17 1   
    26    10    11 ar  
    27    10    15 1   
    28    11    34 1   
    29    12    13 1   
    30    12    28 1   
    31    12    29 1   
    32    12    34 1   
    33    13    30 1   
    34    14    31 1   
    35    15    16 2   
    36    15    32 1   
    37    16    17 1   
    38    17    33 1   
    39    34    37 1   
@<TRIPOS>SUBSTRUCTURE
     1 HU6         1 TEMP              0 ****  ****    0 ROOT
