@<TRIPOS>MOLECULE
HU7
   59    62     1     0     0
SMALL
No Charge or Current Charge


@<TRIPOS>ATOM
      1 N3           0.0750     3.8810     0.8060 na         1 HU7      -0.217700
      2 C4          -4.6300    -2.4040     0.8960 ca         1 HU7      -0.275000
      3 N2          -5.6200    -1.2860    -0.9900 nb         1 HU7      -0.845000
      4 C7          -4.7460    -0.2780    -0.8090 ca         1 HU7       0.649300
      5 C6          -3.7680    -0.2520     0.2190 cp         1 HU7      -0.164000
      6 C9          -2.8140     0.8830     0.3900 cp         1 HU7      -0.027000
      7 C13         -2.3370     3.2450     0.9330 ca         1 HU7      -0.130000
      8 C20          6.6100    -0.0500    -1.1570 c6         1 HU7       0.166300
      9 C21          6.7720    -0.9910     0.0780 c6         1 HU7       0.172300
     10 C18          4.1820     0.2470    -0.5290 c6         1 HU7       0.367300
     11 C16          0.8870     1.8310     0.2010 cc         1 HU7      -0.195400
     12 C19          5.5000     1.0040    -0.8900 c6         1 HU7       0.095300
     13 C3          -5.5640    -2.3260    -0.1500 ca         1 HU7       0.659900
     14 C5          -3.7170    -1.3600     1.0850 ca         1 HU7       0.010000
     15 C10         -1.4260     0.6690     0.1820 ca         1 HU7      -0.030000
     16 C11         -0.5410     1.7450     0.3450 ca         1 HU7      -0.050800
     17 C12         -0.9800     2.9890     0.7050 ca         1 HU7      -0.061200
     18 C14         -3.2560     2.1860     0.7770 ca         1 HU7       0.157000
     19 Cl1         -4.9560     2.5120     1.1170 cl         1 HU7      -0.218000
     20 C15          1.2440     3.1470     0.4890 cd         1 HU7      -0.087100
     21 C17          1.8380     0.7570    -0.1750 c          1 HU7       0.649300
     22 O2           1.4960    -0.3890    -0.4320 o          1 HU7      -0.467000
     23 O3           3.1350     1.1850    -0.2490 os         1 HU7      -0.464100
     24 C22          5.4000    -1.6310     0.4410 c6         1 HU7      -0.016700
     25 O4           4.4100    -0.5710     0.6370 os         1 HU7      -0.418000
     26 C23          5.5530    -2.5800     1.6770 c          1 HU7       0.734000
     27 O5           5.2050    -2.1240     2.7610 o          1 HU7      -0.697000
     28 O6           5.3860    -3.7730     1.4490 o          1 HU7      -0.697000
     29 O7           7.7750    -1.9840    -0.1940 oh         1 HU7      -0.767000
     30 O9           5.3430     1.8900    -2.0280 oh         1 HU7      -0.733000
     31 H1           0.0230     4.8640     1.0590 hn         1 HU7       0.348000
     32 H2          -4.6090    -3.2560     1.5660 ha         1 HU7       0.125000
     33 H3          -2.6780     4.2330     1.2310 ha         1 HU7       0.122000
     34 H4           6.2940    -0.6610    -2.0160 h1         1 HU7       0.041700
     35 H5           7.0910    -0.3770     0.9350 h1         1 HU7       0.040700
     36 H6          -5.7290     0.0660    -3.3940 h1         1 HU7       0.039700
     37 H7          -6.7640     0.9620    -2.2510 h1         1 HU7       0.039700
     38 H8          -5.6060     1.8340    -3.2780 h1         1 HU7       0.039700
     39 H9           3.8880    -0.3880    -1.3790 h2         1 HU7       0.051700
     40 H10          5.7930     1.5910    -0.0050 h1         1 HU7       0.058700
     41 H11         -5.3770    -5.0480     0.1780 h1         1 HU7       0.036700
     42 H12         -6.6810    -4.5960     1.3130 h1         1 HU7       0.036700
     43 H13         -7.0640    -5.3990    -0.2280 h1         1 HU7       0.036700
     44 H14         -8.1710    -2.2010    -1.1110 h1         1 HU7       0.036700
     45 H15         -7.2850    -3.1040    -2.3730 h1         1 HU7       0.036700
     46 H16         -8.3770    -3.9520    -1.2550 h1         1 HU7       0.036700
     47 H17         -2.9880    -1.4010     1.8930 ha         1 HU7       0.128000
     48 H18         -1.0640    -0.3140    -0.1070 ha         1 HU7       0.150000
     49 H19          2.2300     3.6070     0.4930 h4         1 HU7       0.227000
     50 H20          5.0670    -2.2540    -0.4020 h1         1 HU7       0.035700
     51 H22          8.4850    -1.4960    -0.6820 ho         1 HU7       0.572000
     52 H24          4.5350     2.4290    -1.8510 ho         1 HU7       0.501000
     53 N1          -6.5110    -3.3400    -0.3980 nh         1 HU7      -0.786300
     54 C8          -5.7620     0.9150    -2.6990 c3         1 HU7       0.162900
     55 O1          -4.7520     0.7880    -1.6820 os         1 HU7      -0.447300
     56 O8           7.8520     0.6050    -1.4660 oh         1 HU7      -0.643000
     57 C1          -6.4030    -4.6650     0.2530 c3         1 HU7       0.220100
     58 C2          -7.6440    -3.1380    -1.3360 c3         1 HU7       0.220100
     59 H23          7.5880     1.3910    -1.9980 ho         1 HU7       0.432000
@<TRIPOS>BOND
     1     1    17 1   
     2     1    20 1   
     3     1    31 1   
     4     2    13 ar  
     5     2    14 ar  
     6     2    32 1   
     7     3     4 ar  
     8     3    13 ar  
     9     4     5 ar  
    10     4    55 1   
    11     5     6 1   
    12     5    14 ar  
    13     6    15 ar  
    14     6    18 ar  
    15     7    17 ar  
    16     7    18 ar  
    17     7    33 1   
    18     8     9 1   
    19     8    12 1   
    20     8    34 1   
    21     8    56 1   
    22     9    24 1   
    23     9    29 1   
    24     9    35 1   
    25    10    12 1   
    26    10    23 1   
    27    10    25 1   
    28    10    39 1   
    29    11    16 1   
    30    11    20 2   
    31    11    21 1   
    32    12    30 1   
    33    12    40 1   
    34    13    53 1   
    35    14    47 1   
    36    15    16 ar  
    37    15    48 1   
    38    16    17 ar  
    39    18    19 1   
    40    20    49 1   
    41    21    22 2   
    42    21    23 1   
    43    24    25 1   
    44    24    26 1   
    45    24    50 1   
    46    26    27 1   
    47    26    28 1   
    48    29    51 1   
    49    30    52 1   
    50    36    54 1   
    51    37    54 1   
    52    38    54 1   
    53    41    57 1   
    54    42    57 1   
    55    43    57 1   
    56    44    58 1   
    57    45    58 1   
    58    46    58 1   
    59    53    57 1   
    60    53    58 1   
    61    54    55 1   
    62    56    59 1   
@<TRIPOS>SUBSTRUCTURE
     1 HU7         1 TEMP              0 ****  ****    0 ROOT
