@<TRIPOS>MOLECULE
HU7
   59    62     1     0     0
SMALL
bcc


@<TRIPOS>ATOM
      1 N3           0.1260     3.7140     0.8840 na         1 HU7      -0.167400
      2 C4          -4.5420    -2.4820     0.7230 ca         1 HU7      -0.358300
      3 N2          -5.5790    -1.2440    -1.0320 nb         1 HU7      -0.845000
      4 C7          -4.7130    -0.2760    -0.8530 ca         1 HU7       0.714600
      5 C6          -3.7120    -0.2860     0.1290 cp         1 HU7      -0.229300
      6 C9          -2.7620     0.8250     0.3140 cp         1 HU7      -0.027000
      7 C13         -2.3070     3.1480     0.9520 ca         1 HU7      -0.148000
      8 C20          6.5510     0.1220    -1.1510 c6         1 HU7       0.143100
      9 C21          6.7590    -0.8430     0.0050 c6         1 HU7       0.149100
     10 C18          4.1620     0.2290    -0.4800 c6         1 HU7       0.320900
     11 C16          0.9430     1.7460     0.2400 cc         1 HU7      -0.195400
     12 C19          5.3840     1.0600    -0.8560 c6         1 HU7       0.072100
     13 C3          -5.5220    -2.3460    -0.2750 ca         1 HU7       0.725200
     14 C5          -3.6530    -1.4380     0.9010 ca         1 HU7      -0.008000
     15 C10         -1.4070     0.6030     0.1180 ca         1 HU7      -0.048000
     16 C11         -0.4850     1.6290     0.3350 ca         1 HU7      -0.050800
     17 C12         -0.9590     2.8880     0.7430 ca         1 HU7      -0.061200
     18 C14         -3.1820     2.1040     0.7370 ca         1 HU7       0.065400
     19 CL1         -4.8640     2.3820     1.0550 cl         1 HU7      -0.126400
     20 C15          1.2550     3.0420     0.5890 cd         1 HU7      -0.037100
     21 C17          1.8670     0.7030    -0.1480 c          1 HU7       0.698300
     22 O2           1.5460    -0.4140    -0.4750 o          1 HU7      -0.516000
     23 O3           3.1440     1.1240    -0.1090 os         1 HU7      -0.440900
     24 C22          5.4230    -1.5320     0.3460 c6         1 HU7      -0.039900
     25 O4           4.4300    -0.5710     0.6250 os         1 HU7      -0.371600
     26 C23          5.5690    -2.4930     1.5420 c          1 HU7       0.944600
     27 O5           4.7040    -2.4860     2.4180 o          1 HU7      -0.802300
     28 O6           6.5880    -3.2310     1.4890 o          1 HU7      -0.802300
     29 O7           7.7290    -1.7880    -0.3510 oh         1 HU7      -0.644800
     30 O9           5.1490     1.8270    -2.0120 oh         1 HU7      -0.610800
     31 H1           0.0940     4.6810     1.1670 hn         1 HU7       0.297700
     32 H2          -4.4820    -3.3560     1.3540 ha         1 HU7       0.143000
     33 H3          -2.6540     4.1170     1.2820 ha         1 HU7       0.140000
     34 H4           6.2910    -0.4740    -2.0410 h1         1 HU7       0.041700
     35 H5           7.0710    -0.2600     0.8890 h1         1 HU7       0.040700
     36 H6          -5.7600     0.0310    -3.3260 h1         1 HU7       0.039700
     37 H7          -6.7880     0.8570    -2.1460 h1         1 HU7       0.039700
     38 H8          -5.6600     1.7960    -3.1450 h1         1 HU7       0.039700
     39 H9           3.8420    -0.3770    -1.3430 h2         1 HU7       0.051700
     40 H10          5.6480     1.6950     0.0020 h1         1 HU7       0.058700
     41 H11         -5.5890    -5.0080     0.3780 h1         1 HU7       0.036700
     42 H12         -6.8080    -4.1920     1.3670 h1         1 HU7       0.036700
     43 H13         -7.2870    -5.1410    -0.0420 h1         1 HU7       0.036700
     44 H14         -8.3300    -2.4250    -0.9330 h1         1 HU7       0.036700
     45 H15         -7.2230    -2.5070    -2.3020 h1         1 HU7       0.036700
     46 H16         -8.0070    -3.9750    -1.7200 h1         1 HU7       0.036700
     47 H17         -2.9010    -1.5130     1.6780 ha         1 HU7       0.146000
     48 H18         -1.0770    -0.3720    -0.2100 ha         1 HU7       0.168000
     49 H19          2.2140     3.5310     0.6490 h4         1 HU7       0.177000
     50 H20          5.1250    -2.1380    -0.5280 h1         1 HU7       0.035700
     51 H22          7.5650    -2.5260     0.2820 ho         1 HU7       0.473000
     52 H24          4.6480     2.6110    -1.7700 ho         1 HU7       0.402000
     53 N1          -6.4420    -3.3120    -0.5320 nh         1 HU7      -0.786300
     54 C8          -5.8040     0.8570    -2.6160 c3         1 HU7       0.139700
     55 O1          -4.7620     0.7880    -1.6560 os         1 HU7      -0.424100
     56 O8           7.7430     0.8360    -1.3600 oh         1 HU7      -0.580800
     57 C1          -6.5320    -4.4590     0.3420 c3         1 HU7       0.220100
     58 C2          -7.5560    -3.0340    -1.4120 c3         1 HU7       0.220100
     59 H23          7.6150     1.4200    -2.1150 ho         1 HU7       0.393000
@<TRIPOS>BOND
     1     1    17 1   
     2     1    20 1   
     3     1    31 1   
     4     2    13 ar  
     5     2    14 ar  
     6     2    32 1   
     7     3     4 ar  
     8     3    13 ar  
     9     4     5 ar  
    10     4    55 1   
    11     5     6 1   
    12     5    14 ar  
    13     6    15 ar  
    14     6    18 ar  
    15     7    17 ar  
    16     7    18 ar  
    17     7    33 1   
    18     8     9 1   
    19     8    12 1   
    20     8    34 1   
    21     8    56 1   
    22     9    24 1   
    23     9    29 1   
    24     9    35 1   
    25    10    12 1   
    26    10    23 1   
    27    10    25 1   
    28    10    39 1   
    29    11    16 1   
    30    11    20 2   
    31    11    21 1   
    32    12    30 1   
    33    12    40 1   
    34    13    53 1   
    35    14    47 1   
    36    15    16 ar  
    37    15    48 1   
    38    16    17 ar  
    39    18    19 1   
    40    20    49 1   
    41    21    22 2   
    42    21    23 1   
    43    24    25 1   
    44    24    26 1   
    45    24    50 1   
    46    26    27 1   
    47    26    28 1   
    48    29    51 1   
    49    30    52 1   
    50    36    54 1   
    51    37    54 1   
    52    38    54 1   
    53    41    57 1   
    54    42    57 1   
    55    43    57 1   
    56    44    58 1   
    57    45    58 1   
    58    46    58 1   
    59    53    57 1   
    60    53    58 1   
    61    54    55 1   
    62    56    59 1   
@<TRIPOS>SUBSTRUCTURE
     1 HU7         1 TEMP              0 ****  ****    0 ROOT
