@<TRIPOS>MOLECULE
HU8
   69    73     1     0     0
SMALL
No Charge or Current Charge


@<TRIPOS>ATOM
      1 C2           4.0540    -1.5230     1.9990 ca         1 HU8       0.197000
      2 C3           3.7410    -1.8080     0.6560 ca         1 HU8       0.067000
      3 C41         -1.1540    -3.3160     0.4500 ca         1 HU8      -0.074000
      4 C43         -1.0030    -3.9680    -0.7840 ca         1 HU8      -0.087000
      5 C45         -0.5880    -3.2450    -1.9090 ca         1 HU8       0.124000
      6 C46         -0.3250    -1.8730    -1.8030 ca         1 HU8      -0.090000
      7 C52         -2.5580    -1.0950     2.3090 c          1 HU8       0.606100
      8 C56         -4.2780     0.7180     2.8470 c3         1 HU8       0.139400
      9 C57         -4.2030     2.2630     2.8760 c3         1 HU8      -0.105100
     10 C11          0.9670     0.6710     0.0090 cc         1 HU8      -0.071000
     11 C13         -0.9240     1.1590    -1.1190 cc         1 HU8       0.452800
     12 C15          0.9200     2.0140    -0.3100 cd         1 HU8       0.186000
     13 C16          1.9730     2.9740    -0.0170 cd         1 HU8       0.388500
     14 C22         -2.2590     0.9630    -1.8150 c6         1 HU8      -0.098000
     15 C24         -3.3070     1.9960    -1.3150 c6         1 HU8      -0.064400
     16 C27         -4.6700     1.7990    -2.0230 c6         1 HU8      -0.076400
     17 C30         -4.5150     1.8830    -3.5620 c6         1 HU8      -0.074400
     18 F1           5.0170    -2.2230     2.6410 f          1 HU8      -0.156000
     19 C4           2.7370    -1.0740     0.0030 ca         1 HU8      -0.029000
     20 C6           2.0470    -0.0500     0.6810 ca         1 HU8      -0.034000
     21 C7           2.3560     0.2190     2.0290 ca         1 HU8      -0.061000
     22 C9           3.3610    -0.5120     2.6850 ca         1 HU8      -0.152000
     23 N12         -0.1890     0.1570    -0.5140 na         1 HU8      -0.077300
     24 N14         -0.2640     2.3100    -0.9900 nd         1 HU8      -0.686000
     25 N17          1.8720     4.2920    -0.3650 na         1 HU8      -0.198700
     26 N19          3.0030     4.9420     0.0180 nd         1 HU8      -0.206800
     27 N20          3.7470     4.0220     0.5730 nc         1 HU8      -0.049000
     28 N21          3.1430     2.7860     0.5650 nc         1 HU8      -0.391000
     29 C33         -3.4600     0.8720    -4.0760 c6         1 HU8      -0.076400
     30 C36         -2.1000     1.0640    -3.3590 c6         1 HU8      -0.064400
     31 C39         -0.4820    -1.2060    -0.5710 ca         1 HU8      -0.007200
     32 C40         -0.9000    -1.9340     0.5740 ca         1 HU8      -0.046300
     33 O53         -3.3040    -2.0440     2.5020 o          1 HU8      -0.598100
     34 N54         -2.9600     0.2240     2.4230 ns         1 HU8      -0.506900
     35 C61         -4.6140     0.2130     4.2740 c3         1 HU8      -0.105100
     36 C65         -5.3760     0.2750     1.8470 c3         1 HU8      -0.105100
     37 Cl2          4.5890    -3.0830    -0.2180 cl         1 HU8      -0.160000
     38 H1          -1.4740    -3.8900     1.3170 ha         1 HU8       0.130000
     39 H2          -1.2040    -5.0330    -0.8670 ha         1 HU8       0.138000
     40 H3           0.0140    -1.3290    -2.6810 ha         1 HU8       0.146000
     41 H4          -0.5620    -0.3270     2.0220 hc         1 HU8       0.071700
     42 H5          -0.6420    -1.9510     2.7100 hc         1 HU8       0.071700
     43 H6          -3.9660     2.6690     1.8860 hc         1 HU8       0.045922
     44 H7          -5.1600     2.6950     3.1940 hc         1 HU8       0.045922
     45 H8          -3.4300     2.6040     3.5750 hc         1 HU8       0.045922
     46 H9          -2.6470    -0.0370    -1.5790 hc         1 HU8       0.077700
     47 H10         -3.4320     1.8970    -0.2310 hc         1 HU8       0.046950
     48 H11         -2.9480     3.0190    -1.4950 hc         1 HU8       0.046950
     49 H12         -5.0950     0.8240    -1.7470 hc         1 HU8       0.043950
     50 H13         -5.3830     2.5590    -1.6780 hc         1 HU8       0.043950
     51 H14         -5.4830     1.6900    -4.0460 hc         1 HU8       0.040200
     52 H15         -4.2200     2.9020    -3.8490 hc         1 HU8       0.040200
     53 H16          2.4950    -1.3000    -1.0320 ha         1 HU8       0.144000
     54 H17          1.8130     0.9930     2.5680 ha         1 HU8       0.117000
     55 H18          3.6020    -0.3010     3.7240 ha         1 HU8       0.137000
     56 H19          1.0930     4.7400    -0.8340 hn         1 HU8       0.400000
     57 H20         -3.8210    -0.1540    -3.9150 hc         1 HU8       0.043950
     58 H21         -3.3290     0.9890    -5.1610 hc         1 HU8       0.043950
     59 H22         -1.6780     2.0430    -3.6290 hc         1 HU8       0.046950
     60 H23         -1.3870     0.3100    -3.7180 hc         1 HU8       0.046950
     61 H24         -2.2440     0.9170     2.2430 hn         1 HU8       0.309500
     62 H25         -3.8150     0.4740     4.9780 hc         1 HU8       0.045922
     63 H26         -5.5440     0.6670     4.6360 hc         1 HU8       0.045922
     64 H27         -4.7480    -0.8740     4.3000 hc         1 HU8       0.045922
     65 H28         -5.5070    -0.8120     1.8470 hc         1 HU8       0.045922
     66 H29         -6.3420     0.7230     2.1090 hc         1 HU8       0.045922
     67 H30         -5.1260     0.5850     0.8270 hc         1 HU8       0.045922
     68 Cl1         -0.3870    -4.0590    -3.4550 cl         1 HU8      -0.178000
     69 C49         -1.0790    -1.2880     1.9540 c3         1 HU8      -0.132100
@<TRIPOS>BOND
     1     1     2 ar  
     2     1    18 1   
     3     1    22 ar  
     4     2    19 ar  
     5     2    37 1   
     6     3     4 ar  
     7     3    32 ar  
     8     3    38 1   
     9     4     5 ar  
    10     4    39 1   
    11     5     6 ar  
    12     5    68 1   
    13     6    31 ar  
    14     6    40 1   
    15     7    33 2   
    16     7    34 1   
    17     7    69 1   
    18     8     9 1   
    19     8    34 1   
    20     8    35 1   
    21     8    36 1   
    22     9    43 1   
    23     9    44 1   
    24     9    45 1   
    25    10    12 2   
    26    10    20 1   
    27    10    23 1   
    28    11    14 1   
    29    11    23 1   
    30    11    24 2   
    31    12    13 1   
    32    12    24 1   
    33    13    25 1   
    34    13    28 2   
    35    14    15 1   
    36    14    30 1   
    37    14    46 1   
    38    15    16 1   
    39    15    47 1   
    40    15    48 1   
    41    16    17 1   
    42    16    49 1   
    43    16    50 1   
    44    17    29 1   
    45    17    51 1   
    46    17    52 1   
    47    19    20 ar  
    48    19    53 1   
    49    20    21 ar  
    50    21    22 ar  
    51    21    54 1   
    52    22    55 1   
    53    23    31 1   
    54    25    26 1   
    55    25    56 1   
    56    26    27 2   
    57    27    28 1   
    58    29    30 1   
    59    29    57 1   
    60    29    58 1   
    61    30    59 1   
    62    30    60 1   
    63    31    32 ar  
    64    32    69 1   
    65    34    61 1   
    66    35    62 1   
    67    35    63 1   
    68    35    64 1   
    69    36    65 1   
    70    36    66 1   
    71    36    67 1   
    72    41    69 1   
    73    42    69 1   
@<TRIPOS>SUBSTRUCTURE
     1 HU8         1 TEMP              0 ****  ****    0 ROOT
