@<TRIPOS>MOLECULE
HU8
   69    73     1     0     0
SMALL
bcc


@<TRIPOS>ATOM
      1 C2           4.4700    -1.6580     1.3020 ca         1 HU8       0.161900
      2 C3           4.6100    -1.0110     0.0850 ca         1 HU8      -0.024600
      3 C41         -1.3650    -2.9960     0.8670 ca         1 HU8      -0.092000
      4 C43         -0.9570    -3.9160    -0.0830 ca         1 HU8      -0.105000
      5 C45         -0.2200    -3.4820    -1.1730 ca         1 HU8       0.032400
      6 C46          0.1010    -2.1460    -1.3180 ca         1 HU8      -0.108000
      7 C52         -3.0210    -0.4360     1.8060 c          1 HU8       0.673100
      8 C56         -4.7830     0.8870     3.0200 c3         1 HU8       0.139400
      9 C57         -4.6640     2.0160     4.0420 c3         1 HU8      -0.105100
     10 C11          1.2790     0.6480    -0.2530 cc         1 HU8      -0.085600
     11 C13         -0.7340     1.1050    -1.0730 cc         1 HU8       0.452800
     12 C15          1.1750     1.9580    -0.6420 cd         1 HU8       0.251300
     13 C16          2.1440     3.0180    -0.5610 cd         1 HU8       0.388500
     14 C22         -2.1120     0.8680    -1.5900 c6         1 HU8      -0.098000
     15 C24         -3.0340     2.0520    -1.3050 c6         1 HU8      -0.064400
     16 C27         -4.4340     1.7840    -1.8480 c6         1 HU8      -0.076400
     17 C30         -4.4070     1.4720    -3.3400 c6         1 HU8      -0.074400
     18 F1           5.4830    -2.3820     1.7710 f          1 HU8      -0.120900
     19 C4           3.5660    -0.2550    -0.4160 ca         1 HU8      -0.047000
     20 C6           2.3800    -0.1410     0.3030 ca         1 HU8      -0.034000
     21 C7           2.2600    -0.7940     1.5280 ca         1 HU8      -0.079000
     22 C9           3.3010    -1.5560     2.0290 ca         1 HU8      -0.170000
     23 N12          0.0390     0.1210    -0.5240 na         1 HU8      -0.128000
     24 N14         -0.0700     2.2250    -1.1330 nd         1 HU8      -0.686000
     25 N17          1.8840     4.2700    -0.9480 na         1 HU8      -0.148400
     26 N19          2.9580     5.0150    -0.7560 nd         1 HU8      -0.206800
     27 N20          3.8440     4.2420    -0.2630 nc         1 HU8      -0.049000
     28 N21          3.3840     2.9990    -0.1210 nc         1 HU8      -0.391000
     29 C33         -3.4710     0.3060    -3.6390 c6         1 HU8      -0.076400
     30 C36         -2.0700     0.5650    -3.0970 c6         1 HU8      -0.064400
     31 C39         -0.3300    -1.2420    -0.3560 ca         1 HU8      -0.007200
     32 C40         -1.0630    -1.6410     0.7560 ca         1 HU8      -0.046300
     33 O53         -3.7740    -1.0960     1.1100 o          1 HU8      -0.598100
     34 N54         -3.4040     0.5340     2.6480 ns         1 HU8      -0.573900
     35 C61         -5.4940    -0.3040     3.6660 c3         1 HU8      -0.105100
     36 C65         -5.5620     1.3890     1.8070 c3         1 HU8      -0.105100
     37 CL2          6.0840    -1.1710    -0.7920 cl         1 HU8      -0.068400
     38 H1          -1.9250    -3.3480     1.7240 ha         1 HU8       0.148000
     39 H2          -1.2020    -4.9600     0.0280 ha         1 HU8       0.156000
     40 H3           0.6850    -1.8030    -2.1620 ha         1 HU8       0.164000
     41 H4          -0.9770     0.2660     1.7540 hc         1 HU8       0.071700
     42 H5          -1.2630    -1.1000     2.7980 hc         1 HU8       0.071700
     43 H6          -4.1580     2.8850     3.6160 hc         1 HU8       0.045922
     44 H7          -5.6540     2.3350     4.3670 hc         1 HU8       0.045922
     45 H8          -4.1120     1.6980     4.9290 hc         1 HU8       0.045922
     46 H9          -2.5260    -0.0110    -1.0820 hc         1 HU8       0.077700
     47 H10         -3.0750     2.2390    -0.2300 hc         1 HU8       0.046950
     48 H11         -2.6240     2.9540    -1.7680 hc         1 HU8       0.046950
     49 H12         -4.8710     0.9390    -1.3060 hc         1 HU8       0.043950
     50 H13         -5.0780     2.6430    -1.6490 hc         1 HU8       0.043950
     51 H14         -5.4150     1.2470    -3.6960 hc         1 HU8       0.040200
     52 H15         -4.0730     2.3580    -3.8910 hc         1 HU8       0.040200
     53 H16          3.6740     0.2350    -1.3740 ha         1 HU8       0.162000
     54 H17          1.3580    -0.7020     2.1160 ha         1 HU8       0.135000
     55 H18          3.2110    -2.0630     2.9800 ha         1 HU8       0.155000
     56 H19          1.0310     4.6540    -1.3310 hn         1 HU8       0.349700
     57 H20         -3.8680    -0.6060    -3.1820 hc         1 HU8       0.043950
     58 H21         -3.4240     0.1200    -4.7150 hc         1 HU8       0.043950
     59 H22         -1.6210     1.4170    -3.6180 hc         1 HU8       0.046950
     60 H23         -1.4270    -0.2970    -3.2900 hc         1 HU8       0.046950
     61 H24         -2.6750     0.9920     3.1730 hn         1 HU8       0.309500
     62 H25         -4.9400    -0.6580     4.5370 hc         1 HU8       0.045922
     63 H26         -6.4890    -0.0060     3.9990 hc         1 HU8       0.045922
     64 H27         -5.6090    -1.1340     2.9700 hc         1 HU8       0.045922
     65 H28         -5.6710     0.6150     1.0510 hc         1 HU8       0.045922
     66 H29         -6.5590     1.7090     2.1140 hc         1 HU8       0.045922
     67 H30         -5.0610     2.2450     1.3520 hc         1 HU8       0.045922
     68 CL1          0.3160    -4.6190    -2.3550 cl         1 HU8      -0.086400
     69 C49         -1.5110    -0.6850     1.8160 c3         1 HU8      -0.132100
@<TRIPOS>BOND
     1     1     2 ar  
     2     1    18 1   
     3     1    22 ar  
     4     2    19 ar  
     5     2    37 1   
     6     3     4 ar  
     7     3    32 ar  
     8     3    38 1   
     9     4     5 ar  
    10     4    39 1   
    11     5     6 ar  
    12     5    68 1   
    13     6    31 ar  
    14     6    40 1   
    15     7    33 2   
    16     7    34 1   
    17     7    69 1   
    18     8     9 1   
    19     8    34 1   
    20     8    35 1   
    21     8    36 1   
    22     9    43 1   
    23     9    44 1   
    24     9    45 1   
    25    10    12 2   
    26    10    20 1   
    27    10    23 1   
    28    11    14 1   
    29    11    23 1   
    30    11    24 2   
    31    12    13 1   
    32    12    24 1   
    33    13    25 1   
    34    13    28 2   
    35    14    15 1   
    36    14    30 1   
    37    14    46 1   
    38    15    16 1   
    39    15    47 1   
    40    15    48 1   
    41    16    17 1   
    42    16    49 1   
    43    16    50 1   
    44    17    29 1   
    45    17    51 1   
    46    17    52 1   
    47    19    20 ar  
    48    19    53 1   
    49    20    21 ar  
    50    21    22 ar  
    51    21    54 1   
    52    22    55 1   
    53    23    31 1   
    54    25    26 1   
    55    25    56 1   
    56    26    27 2   
    57    27    28 1   
    58    29    30 1   
    59    29    57 1   
    60    29    58 1   
    61    30    59 1   
    62    30    60 1   
    63    31    32 ar  
    64    32    69 1   
    65    34    61 1   
    66    35    62 1   
    67    35    63 1   
    68    35    64 1   
    69    36    65 1   
    70    36    66 1   
    71    36    67 1   
    72    41    69 1   
    73    42    69 1   
@<TRIPOS>SUBSTRUCTURE
     1 HU8         1 TEMP              0 ****  ****    0 ROOT
