@<TRIPOS>MOLECULE
HU9
   37    39     1     0     0
SMALL
No Charge or Current Charge


@<TRIPOS>ATOM
      1 C10        -25.7960     4.1850    24.1550 c6         1 HU9      -0.078700
      2 C13        -26.2580     5.5960    26.7740 c6         1 HU9      -0.071400
      3 C15        -27.0900     5.0160    24.4320 c6         1 HU9      -0.078400
      4 C17        -24.1990     2.2710    20.1300 cc         1 HU9       0.373800
      5 C01        -26.4720     3.3810    17.6020 ca         1 HU9      -0.208000
      6 C02        -25.4150     2.8750    18.3630 ca         1 HU9       0.025800
      7 C03        -25.4170     2.9130    19.7190 ca         1 HU9      -0.302900
      8 C04        -26.4730     3.4630    20.4440 ca         1 HU9       0.452000
      9 C05        -27.5690     3.9790    19.7120 ca         1 HU9      -0.165900
     10 C06        -27.5660     3.9410    18.2950 ca         1 HU9       0.012000
     11 Br7        -29.0810     4.7520    20.6150 br         1 HU9      -0.137100
     12 N08        -26.4720     3.5010    21.8320 nu         1 HU9      -0.964200
     13 C09        -25.4360     4.1690    22.6380 c3         1 HU9       0.234800
     14 C11        -24.6120     4.7330    25.0110 c6         1 HU9       0.174300
     15 C12        -24.9760     4.7690    26.5180 c6         1 HU9      -0.108400
     16 C14        -27.4390     5.0510    25.9400 c6         1 HU9      -0.075400
     17 O16        -23.4440     3.9250    24.8350 oh         1 HU9      -0.669000
     18 N18        -23.4690     1.8650    19.0760 nd         1 HU9      -0.529100
     19 N19        -24.2470     2.2570    17.9760 na         1 HU9      -0.076400
     20 H1         -25.9760     3.1410    24.4450 hc         1 HU9       0.069700
     21 H2         -26.0780     6.6500    26.5190 hc         1 HU9       0.043200
     22 H3         -26.5120     5.5710    27.8420 hc         1 HU9       0.043200
     23 H4         -26.9590     6.0430    24.0630 hc         1 HU9       0.045700
     24 H5         -27.9430     4.5970    23.8820 hc         1 HU9       0.045700
     25 H7         -26.4580     3.3400    16.5150 ha         1 HU9       0.124000
     26 H8         -28.4110     4.3430    17.7390 ha         1 HU9       0.125000
     27 H9         -27.4170     3.6430    22.1880 hn         1 HU9       0.499000
     28 H10        -24.4750     3.6570    22.5050 h1         1 HU9       0.055200
     29 H11        -25.3040     5.2070    22.2990 h1         1 HU9       0.055200
     30 H12        -24.3990     5.7630    24.6860 h1         1 HU9       0.032700
     31 H13        -25.1200     3.7450    26.8920 hc         1 HU9       0.048200
     32 H14        -24.1450     5.1980    27.0950 hc         1 HU9       0.048200
     33 H15        -28.3290     5.6750    26.1020 hc         1 HU9       0.045200
     34 H16        -27.7010     4.0400    26.2830 hc         1 HU9       0.045200
     35 H17        -22.7440     4.3150    25.4040 ho         1 HU9       0.444000
     36 H18        -23.9500     2.0820    17.0170 hn         1 HU9       0.375000
     37 H6         -23.8030     2.0580    21.1140 h4         1 HU9       0.046800
@<TRIPOS>BOND
     1     1     3 1   
     2     1    13 1   
     3     1    14 1   
     4     1    20 1   
     5     2    15 1   
     6     2    16 1   
     7     2    21 1   
     8     2    22 1   
     9     3    16 1   
    10     3    23 1   
    11     3    24 1   
    12     4     7 1   
    13     4    18 2   
    14     4    37 1   
    15     5     6 ar  
    16     5    10 ar  
    17     5    25 1   
    18     6     7 ar  
    19     6    19 1   
    20     7     8 ar  
    21     8     9 ar  
    22     8    12 1   
    23     9    10 ar  
    24     9    11 1   
    25    10    26 1   
    26    12    13 1   
    27    12    27 1   
    28    13    28 1   
    29    13    29 1   
    30    14    15 1   
    31    14    17 1   
    32    14    30 1   
    33    15    31 1   
    34    15    32 1   
    35    16    33 1   
    36    16    34 1   
    37    17    35 1   
    38    18    19 1   
    39    19    36 1   
@<TRIPOS>SUBSTRUCTURE
     1 HU9         1 TEMP              0 ****  ****    0 ROOT
