@<TRIPOS>MOLECULE
HU9
   37    39     1     0     0
SMALL
abcg2


@<TRIPOS>ATOM
      1 C10        -25.9160     4.0920    24.1840 c6         1 HU9      -0.078700
      2 C13        -25.9720     5.8740    26.5650 c6         1 HU9      -0.071400
      3 C15        -26.7130     5.4050    24.2050 c6         1 HU9      -0.078400
      4 C17        -23.9830     3.4450    20.0540 cc         1 HU9       0.373800
      5 C01        -26.6660     3.0950    17.6810 ca         1 HU9      -0.208000
      6 C02        -25.4620     3.2380    18.3800 ca         1 HU9       0.025800
      7 C03        -25.3840     3.3390    19.7920 ca         1 HU9      -0.302900
      8 C04        -26.5710     3.3010    20.5800 ca         1 HU9       0.452000
      9 C05        -27.7590     3.1510    19.8460 ca         1 HU9      -0.165900
     10 C06        -27.8100     3.0510    18.4510 ca         1 HU9       0.012000
     11 BR7        -29.4320     3.0810    20.7970 br         1 HU9      -0.137100
     12 N08        -26.5730     3.3860    21.9340 nu         1 HU9      -0.964200
     13 C09        -25.4420     3.7480    22.7740 c3         1 HU9       0.234800
     14 C11        -24.7370     4.1760    25.1520 c6         1 HU9       0.174300
     15 C12        -25.1880     4.5620    26.5570 c6         1 HU9      -0.108400
     16 C14        -27.1630     5.7960    25.6110 c6         1 HU9      -0.075400
     17 O16        -24.0780     2.9000    25.1600 oh         1 HU9      -0.669000
     18 N18        -23.2820     3.4180    18.9370 nd         1 HU9      -0.529100
     19 N19        -24.1820     3.2950    17.9300 na         1 HU9      -0.076400
     20 H1         -26.5630     3.2780    24.5370 hc         1 HU9       0.069700
     21 H2         -25.3140     6.6940    26.2560 hc         1 HU9       0.043200
     22 H3         -26.3050     6.1030    27.5800 hc         1 HU9       0.043200
     23 H4         -26.0800     6.1990    23.7920 hc         1 HU9       0.045700
     24 H5         -27.5780     5.3210    23.5440 hc         1 HU9       0.045700
     25 H7         -26.7010     3.0200    16.6040 ha         1 HU9       0.124000
     26 H8         -28.7750     2.9410    17.9740 ha         1 HU9       0.125000
     27 H9         -27.4790     3.3920    22.3750 hn         1 HU9       0.499000
     28 H10        -24.7270     2.9240    22.8160 h1         1 HU9       0.055200
     29 H11        -24.9260     4.6170    22.3540 h1         1 HU9       0.055200
     30 H12        -24.0370     4.9380    24.7800 h1         1 HU9       0.032700
     31 H13        -25.8150     3.7540    26.9480 hc         1 HU9       0.048200
     32 H14        -24.3100     4.6330    27.2050 hc         1 HU9       0.048200
     33 H15        -27.6900     6.7520    25.5790 hc         1 HU9       0.045200
     34 H16        -27.8750     5.0510    25.9830 hc         1 HU9       0.045200
     35 H17        -23.3330     2.9540    25.7710 ho         1 HU9       0.444000
     36 H18        -23.8640     3.2510    16.9760 hn         1 HU9       0.375000
     37 H6         -23.4680     3.5330    20.9950 h4         1 HU9       0.046800
@<TRIPOS>BOND
     1     1     3 1   
     2     1    13 1   
     3     1    14 1   
     4     1    20 1   
     5     2    15 1   
     6     2    16 1   
     7     2    21 1   
     8     2    22 1   
     9     3    16 1   
    10     3    23 1   
    11     3    24 1   
    12     4     7 1   
    13     4    18 2   
    14     4    37 1   
    15     5     6 ar  
    16     5    10 ar  
    17     5    25 1   
    18     6     7 ar  
    19     6    19 1   
    20     7     8 ar  
    21     8     9 ar  
    22     8    12 1   
    23     9    10 ar  
    24     9    11 1   
    25    10    26 1   
    26    12    13 1   
    27    12    27 1   
    28    13    28 1   
    29    13    29 1   
    30    14    15 1   
    31    14    17 1   
    32    14    30 1   
    33    15    31 1   
    34    15    32 1   
    35    16    33 1   
    36    16    34 1   
    37    17    35 1   
    38    18    19 1   
    39    19    36 1   
@<TRIPOS>SUBSTRUCTURE
     1 HU9         1 TEMP              0 ****  ****    0 ROOT
