@<TRIPOS>MOLECULE
HUB
   39    42     1     0     0
SMALL
abcg2


@<TRIPOS>ATOM
      1 C1           0.3480    -0.0660     3.3410 c          1 HUB       0.553200
      2 O1           0.5620    -0.3460     4.5210 o          1 HUB      -0.569000
      3 N1           0.5310    -1.0090     2.3520 ns         1 HUB      -0.363100
      4 C2          -0.0910     1.2050     2.8390 cc         1 HUB      -0.323200
      5 C3          -0.3040     1.3930     1.5090 cd         1 HUB      -0.085000
      6 C4          -0.1120     0.3680     0.5480 cd         1 HUB      -0.218200
      7 C5           0.3250    -0.8370     1.0190 cc         1 HUB       0.090400
      8 C6           0.5960    -2.0200     0.1470 c6         1 HUB      -0.047200
      9 C7           0.6600    -1.5960    -1.3220 c6         1 HUB      -0.011500
     10 C8           1.9600    -0.8860    -1.5770 c2         1 HUB      -0.236200
     11 C9          -3.0190    -0.3550    -1.6440 c6         1 HUB      -0.074400
     12 C10         -1.8840    -1.3430    -1.4070 c6         1 HUB      -0.068400
     13 C11         -0.5250    -0.6990    -1.6770 c6         1 HUB      -0.050700
     14 C12         -0.3460     0.6340    -0.9390 c6         1 HUB       0.271400
     15 N2          -1.5010     1.4750    -1.2060 n7         1 HUB      -0.882400
     16 C13          0.8840     1.3380    -1.5220 c6         1 HUB      -0.039200
     17 C14          2.0790     0.4390    -1.6570 c2         1 HUB      -0.092400
     18 C15          3.3900     1.1170    -1.9010 c3         1 HUB      -0.054900
     19 C90         -2.7810     0.9050    -0.8310 c6         1 HUB       0.173800
     20 H1           0.8570    -1.9150     2.6630 hn         1 HUB       0.321500
     21 H2          -0.2470     2.0050     3.5490 ha         1 HUB       0.207000
     22 H3          -0.6340     2.3710     1.1800 ha         1 HUB       0.175000
     23 H6C1        -0.1810    -2.7740     0.3090 hc         1 HUB       0.060700
     24 H6C2         1.5380    -2.4890     0.4440 hc         1 HUB       0.060700
     25 H7           0.6240    -2.5000    -1.9380 hc         1 HUB       0.061700
     26 H8           2.8460    -1.5080    -1.6650 ha         1 HUB       0.173000
     27 H9C1        -3.9780    -0.8020    -1.3700 hc         1 HUB       0.047200
     28 H9C2        -3.0780    -0.0920    -2.7050 hc         1 HUB       0.047200
     29 H101        -1.9520    -1.6980    -0.3740 hc         1 HUB       0.039700
     30 H102        -1.9960    -2.2240    -2.0450 hc         1 HUB       0.039700
     31 H11         -0.4720    -0.4770    -2.7500 hc         1 HUB       0.069700
     32 HA          -1.3830     2.3950    -0.8030 hn         1 HUB       0.419000
     33 H131         1.1480     2.2090    -0.9100 hc         1 HUB       0.057700
     34 H132         0.6200     1.7410    -2.5080 hc         1 HUB       0.057700
     35 H151         4.2050     0.4020    -2.0160 hc         1 HUB       0.042367
     36 H152         3.3520     1.7340    -2.8040 hc         1 HUB       0.042367
     37 H153         3.6420     1.7900    -1.0770 hc         1 HUB       0.042367
     38 H901        -2.8540     0.6610     0.2410 h1         1 HUB       0.032200
     39 H902        -3.5560     1.6460    -1.0360 h1         1 HUB       0.032200
@<TRIPOS>BOND
     1     1     2 2   
     2     1     3 1   
     3     1     4 1   
     4     3     7 1   
     5     3    20 1   
     6     4     5 2   
     7     4    21 1   
     8     5     6 1   
     9     5    22 1   
    10     6     7 2   
    11     6    14 1   
    12     7     8 1   
    13     8     9 1   
    14     8    23 1   
    15     8    24 1   
    16     9    10 1   
    17     9    13 1   
    18     9    25 1   
    19    10    17 2   
    20    10    26 1   
    21    11    12 1   
    22    11    19 1   
    23    11    27 1   
    24    11    28 1   
    25    12    13 1   
    26    12    29 1   
    27    12    30 1   
    28    13    14 1   
    29    13    31 1   
    30    14    15 1   
    31    14    16 1   
    32    15    19 1   
    33    15    32 1   
    34    16    17 1   
    35    16    33 1   
    36    16    34 1   
    37    17    18 1   
    38    18    35 1   
    39    18    36 1   
    40    18    37 1   
    41    19    38 1   
    42    19    39 1   
@<TRIPOS>SUBSTRUCTURE
     1 HUB         1 TEMP              0 ****  ****    0 ROOT
