@<TRIPOS>MOLECULE
HUB
   39    42     1     0     0
SMALL
No Charge or Current Charge


@<TRIPOS>ATOM
      1 C1           0.3050    -0.0930     3.3920 c          1 HUB       0.553200
      2 O1           0.4940    -0.3400     4.5720 o          1 HUB      -0.569000
      3 N1           0.5160    -1.0170     2.4110 ns         1 HUB      -0.363100
      4 C2          -0.1580     1.2020     2.8880 cc         1 HUB      -0.323200
      5 C3          -0.3730     1.4680     1.5480 cd         1 HUB      -0.085000
      6 C4          -0.1390     0.4150     0.5770 cd         1 HUB      -0.218200
      7 C5           0.3240    -0.8060     1.0590 cc         1 HUB       0.090400
      8 C6           0.6520    -2.0020     0.1850 c6         1 HUB      -0.047200
      9 C7           0.6800    -1.6260    -1.3200 c6         1 HUB      -0.011500
     10 C8           1.9950    -0.9220    -1.6390 c2         1 HUB      -0.236200
     11 C9          -3.0420    -0.3630    -1.6890 c6         1 HUB      -0.074400
     12 C10         -1.9050    -1.3680    -1.4140 c6         1 HUB      -0.068400
     13 C11         -0.5180    -0.7050    -1.6850 c6         1 HUB      -0.050700
     14 C12         -0.3380     0.6530    -0.9270 c6         1 HUB       0.271400
     15 N2          -1.5110     1.5370    -1.1740 n7         1 HUB      -0.882400
     16 C13          0.9380     1.3580    -1.4840 c6         1 HUB      -0.039200
     17 C14          2.1250     0.4160    -1.7040 c2         1 HUB      -0.092400
     18 C15          3.4360     1.1070    -2.0220 c3         1 HUB      -0.054900
     19 C90         -2.8250     0.9250    -0.8650 c6         1 HUB       0.173800
     20 H1           0.8440    -1.9190     2.7320 hn         1 HUB       0.321500
     21 H2          -0.3230     1.9560     3.6490 ha         1 HUB       0.207000
     22 H3          -0.7060     2.4560     1.2430 ha         1 HUB       0.175000
     23 H6C1        -0.0850    -2.7990     0.3500 hc         1 HUB       0.060700
     24 H6C2         1.6200    -2.4380     0.4690 hc         1 HUB       0.060700
     25 H7           0.6230    -2.5440    -1.9220 hc         1 HUB       0.061700
     26 H8           2.8550    -1.5720    -1.8100 ha         1 HUB       0.173000
     27 H9C1        -4.0120    -0.8110    -1.4320 hc         1 HUB       0.047200
     28 H9C2        -3.0790    -0.1180    -2.7590 hc         1 HUB       0.047200
     29 H101        -1.9890    -1.7080    -0.3740 hc         1 HUB       0.039700
     30 H102        -2.0290    -2.2570    -2.0470 hc         1 HUB       0.039700
     31 H11         -0.4670    -0.4990    -2.7640 hc         1 HUB       0.069700
     32 HA          -1.3990     2.3870    -0.6160 hn         1 HUB       0.419000
     33 H131         1.2310     2.1720    -0.8070 hc         1 HUB       0.057700
     34 H132         0.7040     1.8370    -2.4450 hc         1 HUB       0.057700
     35 H151         4.2460     0.3860    -2.1870 hc         1 HUB       0.042367
     36 H152         3.3490     1.7190    -2.9270 hc         1 HUB       0.042367
     37 H153         3.7430     1.7650    -1.2000 hc         1 HUB       0.042367
     38 H901        -2.8850     0.6920     0.2090 h1         1 HUB       0.032200
     39 H902        -3.6240     1.6450    -1.0940 h1         1 HUB       0.032200
@<TRIPOS>BOND
     1     1     2 2   
     2     1     3 1   
     3     1     4 1   
     4     3     7 1   
     5     3    20 1   
     6     4     5 2   
     7     4    21 1   
     8     5     6 1   
     9     5    22 1   
    10     6     7 2   
    11     6    14 1   
    12     7     8 1   
    13     8     9 1   
    14     8    23 1   
    15     8    24 1   
    16     9    10 1   
    17     9    13 1   
    18     9    25 1   
    19    10    17 2   
    20    10    26 1   
    21    11    12 1   
    22    11    19 1   
    23    11    27 1   
    24    11    28 1   
    25    12    13 1   
    26    12    29 1   
    27    12    30 1   
    28    13    14 1   
    29    13    31 1   
    30    14    15 1   
    31    14    16 1   
    32    15    19 1   
    33    15    32 1   
    34    16    17 1   
    35    16    33 1   
    36    16    34 1   
    37    17    18 1   
    38    18    35 1   
    39    18    36 1   
    40    18    37 1   
    41    19    38 1   
    42    19    39 1   
@<TRIPOS>SUBSTRUCTURE
     1 HUB         1 TEMP              0 ****  ****    0 ROOT
