@<TRIPOS>MOLECULE
HUC
   36    38     1     0     0
SMALL
No Charge or Current Charge


@<TRIPOS>ATOM
      1 C10        -10.5690   -25.2670    37.6450 c6         1 HUC      -0.075400
      2 C15        -12.4720   -30.0670    32.2950 cc         1 HUC       0.365800
      3 Br1         -7.7380   -29.2410    28.5550 br         1 HUC      -0.108100
      4 C02         -9.1890   -29.4140    29.7870 ca         1 HUC       0.083100
      5 C03         -9.3090   -28.5040    30.8620 ca         1 HUC      -0.247000
      6 C04        -10.3680   -28.6110    31.7820 ca         1 HUC       0.418000
      7 N05        -10.4340   -27.6870    32.8210 nu         1 HUC      -0.962200
      8 C06        -11.3760   -27.6350    33.9500 c3         1 HUC       0.225800
      9 C07        -11.0410   -26.4710    34.9280 c6         1 HUC      -0.081700
     10 C08        -12.2230   -26.1910    35.9050 c6         1 HUC       0.158300
     11 C09        -11.8950   -25.0270    36.8770 c6         1 HUC      -0.078400
     12 C11         -9.3990   -25.5350    36.6680 c6         1 HUC      -0.075400
     13 C12         -9.7160   -26.7140    35.7140 c6         1 HUC      -0.072400
     14 Cl1        -12.6970   -27.7080    36.8620 cl         1 HUC      -0.304000
     15 C14        -11.2880   -29.6500    31.5850 ca         1 HUC      -0.288900
     16 N16        -13.0500   -31.1390    31.7270 nd         1 HUC      -0.523100
     17 N17        -12.2200   -31.4110    30.6340 na         1 HUC      -0.065400
     18 C18        -11.1710   -30.5240    30.5480 ca         1 HUC       0.006800
     19 C19        -10.1310   -30.4460    29.6180 ca         1 HUC      -0.178000
     20 H1         -10.6810   -26.1180    38.3320 hc         1 HUC       0.050700
     21 H2         -10.3390   -24.3940    38.2710 hc         1 HUC       0.050700
     22 H4          -8.5730   -27.7150    30.9760 ha         1 HUC       0.125000
     23 H5          -9.6930   -26.9870    32.8160 hn         1 HUC       0.482000
     24 H6         -12.3950   -27.4840    33.5680 h1         1 HUC       0.053700
     25 H7         -11.3550   -28.5840    34.5050 h1         1 HUC       0.053700
     26 H8         -10.9170   -25.5740    34.3060 hc         1 HUC       0.050700
     27 H9         -13.1250   -25.9370    35.3300 h1         1 HUC       0.070700
     28 H10        -11.8210   -24.0910    36.3070 hc         1 HUC       0.053200
     29 H11        -12.7210   -24.8900    37.5880 hc         1 HUC       0.053200
     30 H12         -8.4830   -25.7510    37.2350 hc         1 HUC       0.042200
     31 H13         -9.1940   -24.6290    36.0800 hc         1 HUC       0.042200
     32 H14         -9.7830   -27.6470    36.2900 hc         1 HUC       0.055700
     33 H15         -8.8780   -26.8460    35.0150 hc         1 HUC       0.055700
     34 H17        -10.0510   -31.1530    28.7950 ha         1 HUC       0.137000
     35 H16        -12.4050   -32.1860    29.9990 hn         1 HUC       0.377000
     36 H3         -12.9540   -29.6720    33.1780 h4         1 HUC       0.048800
@<TRIPOS>BOND
     1     1    11 1   
     2     1    12 1   
     3     1    20 1   
     4     1    21 1   
     5     2    15 1   
     6     2    16 2   
     7     2    36 1   
     8     3     4 1   
     9     4     5 ar  
    10     4    19 ar  
    11     5     6 ar  
    12     5    22 1   
    13     6     7 1   
    14     6    15 ar  
    15     7     8 1   
    16     7    23 1   
    17     8     9 1   
    18     8    24 1   
    19     8    25 1   
    20     9    10 1   
    21     9    13 1   
    22     9    26 1   
    23    10    11 1   
    24    10    14 1   
    25    10    27 1   
    26    11    28 1   
    27    11    29 1   
    28    12    13 1   
    29    12    30 1   
    30    12    31 1   
    31    13    32 1   
    32    13    33 1   
    33    15    18 ar  
    34    16    17 1   
    35    17    18 1   
    36    17    35 1   
    37    18    19 ar  
    38    19    34 1   
@<TRIPOS>SUBSTRUCTURE
     1 HUC         1 TEMP              0 ****  ****    0 ROOT
