@<TRIPOS>MOLECULE
HUC
   36    38     1     0     0
SMALL
bcc


@<TRIPOS>ATOM
      1 C10        -10.6020   -25.3900    37.6140 c6         1 HUC      -0.075400
      2 C15        -12.3090   -30.1860    32.5040 cc         1 HUC       0.365800
      3 BR1         -8.0520   -28.9720    28.4120 br         1 HUC      -0.108100
      4 C02         -9.3470   -29.2900    29.7570 ca         1 HUC       0.083100
      5 C03         -9.4300   -28.3660    30.8010 ca         1 HUC      -0.265000
      6 C04        -10.3640   -28.5200    31.8310 ca         1 HUC       0.279600
      7 N05        -10.3890   -27.6150    32.8410 nu         1 HUC      -0.768600
      8 C06        -11.3990   -27.5250    33.8670 c3         1 HUC       0.225800
      9 C07        -11.0120   -26.4620    34.8900 c6         1 HUC      -0.081700
     10 C08        -12.1950   -26.0460    35.7550 c6         1 HUC       0.081700
     11 C09        -11.8110   -24.9910    36.7770 c6         1 HUC      -0.078400
     12 C11         -9.4230   -25.7740    36.7270 c6         1 HUC      -0.075400
     13 C12         -9.8040   -26.8660    35.7330 c6         1 HUC      -0.072400
     14 CL1        -12.8900   -27.4970    36.6150 cl         1 HUC      -0.227400
     15 C14        -11.2260   -29.6440    31.7510 ca         1 HUC      -0.288900
     16 N16        -12.7630   -31.2820    31.9570 nd         1 HUC      -0.523100
     17 N17        -12.0250   -31.4950    30.8630 na         1 HUC      -0.015100
     18 C18        -11.0850   -30.5450    30.6750 ca         1 HUC       0.006800
     19 C19        -10.1460   -30.4050    29.6470 ca         1 HUC      -0.196000
     20 H1         -10.8620   -26.2270    38.2680 hc         1 HUC       0.050700
     21 H2         -10.3300   -24.5610    38.2710 hc         1 HUC       0.050700
     22 H4          -8.7640   -27.5130    30.8250 ha         1 HUC       0.143000
     23 H5          -9.8430   -26.7820    32.6850 hn         1 HUC       0.426800
     24 H6         -12.3830   -27.2900    33.4420 h1         1 HUC       0.053700
     25 H7         -11.4840   -28.4850    34.3790 h1         1 HUC       0.053700
     26 H8         -10.7550   -25.5440    34.3410 hc         1 HUC       0.050700
     27 H9         -13.0110   -25.6870    35.1280 h1         1 HUC       0.070700
     28 H10        -11.5770   -24.0830    36.2110 hc         1 HUC       0.053200
     29 H11        -12.6700   -24.7520    37.4060 hc         1 HUC       0.053200
     30 H12         -8.5820   -26.1070    37.3390 hc         1 HUC       0.042200
     31 H13         -9.0800   -24.8910    36.1780 hc         1 HUC       0.042200
     32 H14        -10.0320   -27.7940    36.2660 hc         1 HUC       0.055700
     33 H15         -8.9580   -27.0840    35.0780 hc         1 HUC       0.055700
     34 H17        -10.0700   -31.1130    28.8340 ha         1 HUC       0.155000
     35 H16        -12.2110   -32.2960    30.2820 hn         1 HUC       0.326700
     36 H3         -12.7700   -29.8180    33.4060 h4         1 HUC       0.048800
@<TRIPOS>BOND
     1     1    11 1   
     2     1    12 1   
     3     1    20 1   
     4     1    21 1   
     5     2    15 1   
     6     2    16 2   
     7     2    36 1   
     8     3     4 1   
     9     4     5 ar  
    10     4    19 ar  
    11     5     6 ar  
    12     5    22 1   
    13     6     7 1   
    14     6    15 ar  
    15     7     8 1   
    16     7    23 1   
    17     8     9 1   
    18     8    24 1   
    19     8    25 1   
    20     9    10 1   
    21     9    13 1   
    22     9    26 1   
    23    10    11 1   
    24    10    14 1   
    25    10    27 1   
    26    11    28 1   
    27    11    29 1   
    28    12    13 1   
    29    12    30 1   
    30    12    31 1   
    31    13    32 1   
    32    13    33 1   
    33    15    18 ar  
    34    16    17 1   
    35    17    18 1   
    36    17    35 1   
    37    18    19 ar  
    38    19    34 1   
@<TRIPOS>SUBSTRUCTURE
     1 HUC         1 TEMP              0 ****  ****    0 ROOT
