@<TRIPOS>MOLECULE
HUD
   80    82     1     0     0
SMALL
No Charge or Current Charge


@<TRIPOS>ATOM
      1 O2          -5.1180     0.4280     0.6050 o          1 HUD      -0.559000
      2 C1          -4.6260    -0.5180     0.0120 c          1 HUD       0.653100
      3 O3          -5.2450    -1.3540    -0.8750 os         1 HUD      -0.475100
      4 C4          -6.6460    -1.2290    -1.2150 c3         1 HUD       0.225000
      5 C6          -6.8960    -2.3710    -2.2240 c3         1 HUD      -0.108767
      6 C5          -7.5100    -1.4460     0.0540 c3         1 HUD      -0.108767
      7 C7          -6.8980     0.1420    -1.8960 c3         1 HUD      -0.108767
      8 N8          -3.3250    -0.9090     0.1190 ns         1 HUD      -0.498900
      9 C9          -2.3020    -0.2700     0.9800 c3         1 HUD       0.063700
     10 C10         -2.1110    -1.0490     2.3410 c3         1 HUD      -0.046000
     11 C11         -1.4980    -2.4560     2.0920 c3         1 HUD      -0.089100
     12 C12         -1.1780    -0.2710     3.3080 c3         1 HUD      -0.089100
     13 C13         -3.4780    -1.2300     3.0620 c3         1 HUD      -0.089100
     14 C14         -0.9830    -0.1100     0.1430 c          1 HUD       0.599100
     15 O15         -0.6950    -0.9190    -0.7350 o          1 HUD      -0.618100
     16 N16         -0.0960     0.9500     0.4360 n          1 HUD      -0.391800
     17 C17         -0.5840     2.2570     0.9470 c5         1 HUD       0.132000
     18 C18          1.2410     1.0250    -0.2350 c5         1 HUD       0.056700
     19 C19          1.6820     2.4850    -0.0080 cx         1 HUD      -0.137700
     20 C20          0.5790     3.2250     0.6990 cx         1 HUD      -0.130700
     21 C21          0.9080     3.5660    -0.7480 cx         1 HUD      -0.073000
     22 C22          1.6220     4.8880    -1.0250 c3         1 HUD      -0.065600
     23 C23         -0.0500     3.2510    -1.9100 c3         1 HUD      -0.065600
     24 C24          2.2730     0.0020     0.3360 c          1 HUD       0.605100
     25 O25          2.1700    -0.6860     1.3450 o          1 HUD      -0.607100
     26 N26          3.3970     0.0050    -0.4650 ns         1 HUD      -0.499900
     27 C27          4.5900    -0.8250    -0.2520 c3         1 HUD       0.098700
     28 C28          4.6640    -1.9670    -1.2990 c3         1 HUD      -0.054400
     29 C29          3.4950    -2.9480    -1.2170 cx         1 HUD      -0.133700
     30 C30          3.1380    -3.8290    -2.3920 cx         1 HUD      -0.124900
     31 C31          2.2110    -2.7090    -1.9770 cx         1 HUD      -0.124900
     32 C33          5.8770     0.0520    -0.2100 c3         1 HUD       0.074300
     33 C36          5.8570     1.0740     0.9700 c          1 HUD       0.574100
     34 H4          -6.6790    -3.3460    -1.7710 hc         1 HUD       0.049256
     35 H5          -7.9410    -2.3770    -2.5570 hc         1 HUD       0.049256
     36 H6          -6.2590    -2.2570    -3.1090 hc         1 HUD       0.049256
     37 H1          -7.4590    -0.5900     0.7360 hc         1 HUD       0.049256
     38 H2          -8.5640    -1.5790    -0.2200 hc         1 HUD       0.049256
     39 H3          -7.1860    -2.3410     0.5970 hc         1 HUD       0.049256
     40 H7          -6.1540     0.3290    -2.6800 hc         1 HUD       0.049256
     41 H8          -7.8910     0.1600    -2.3600 hc         1 HUD       0.049256
     42 H9          -6.8610     0.9690    -1.1790 hc         1 HUD       0.049256
     43 H10         -3.0490    -1.6850    -0.4690 hn         1 HUD       0.341500
     44 H11         -2.6590     0.7390     1.2180 h1         1 HUD       0.088700
     45 H12         -0.4940    -2.3840     1.6570 hc         1 HUD       0.040367
     46 H13         -1.4090    -3.0150     3.0320 hc         1 HUD       0.040367
     47 H14         -2.1220    -3.0480     1.4120 hc         1 HUD       0.040367
     48 H15         -0.1730    -0.1450     2.8900 hc         1 HUD       0.040367
     49 H16         -1.5880     0.7200     3.5370 hc         1 HUD       0.040367
     50 H17         -1.0670    -0.8080     4.2590 hc         1 HUD       0.040367
     51 H18         -3.3450    -1.6960     4.0460 hc         1 HUD       0.040367
     52 H19         -3.9720    -0.2620     3.2130 hc         1 HUD       0.040367
     53 H20         -4.1560    -1.8730     2.4880 hc         1 HUD       0.040367
     54 H21         -1.5020     2.5730     0.4340 h1         1 HUD       0.062200
     55 H22         -0.8160     2.1930     2.0170 h1         1 HUD       0.062200
     56 H23          1.1460     0.8000    -1.3050 h1         1 HUD       0.089700
     57 H24          2.7120     2.7000     0.2720 hc         1 HUD       0.113700
     58 H25          0.8410     3.9500     1.4660 hc         1 HUD       0.099700
     59 H26          2.2020     4.8350    -1.9540 hc         1 HUD       0.041700
     60 H27          0.9040     5.7110    -1.1210 hc         1 HUD       0.041700
     61 H28          2.3170     5.1500    -0.2170 hc         1 HUD       0.041700
     62 H29         -0.6130     2.3210    -1.7850 hc         1 HUD       0.041700
     63 H30         -0.7870     4.0540    -2.0310 hc         1 HUD       0.041700
     64 H31          0.5030     3.1660    -2.8530 hc         1 HUD       0.041700
     65 H32          3.3900     0.6230    -1.2680 hn         1 HUD       0.323500
     66 H33          4.5010    -1.3110     0.7290 h1         1 HUD       0.076700
     67 H34          4.7230    -1.5340    -2.3050 hc         1 HUD       0.054200
     68 H35          5.5990    -2.5210    -1.1480 hc         1 HUD       0.054200
     69 H36          3.3990    -3.3980    -0.2310 hc         1 HUD       0.077700
     70 H37          3.7000    -3.7050    -3.3150 hc         1 HUD       0.072950
     71 H38          2.8260    -4.8490    -2.1830 hc         1 HUD       0.072950
     72 H39          1.2780    -2.9750    -1.4870 hc         1 HUD       0.072950
     73 H40          2.1520    -1.8350    -2.6220 hc         1 HUD       0.072950
     74 H42          6.7290    -0.6130    -0.0150 h1         1 HUD       0.072700
     75 H43          5.7260     1.2270     3.0030 hn         1 HUD       0.322500
     76 H44          5.6660    -0.4090     2.3860 hn         1 HUD       0.322500
     77 O32          6.0670     0.7340    -1.4800 oh         1 HUD      -0.655000
     78 O34          5.9560     2.2800     0.7940 o          1 HUD      -0.623100
     79 N35          5.7370     0.5850     2.2260 nt         1 HUD      -0.583000
     80 H41          6.1940     1.6870    -1.2560 ho         1 HUD       0.476000
@<TRIPOS>BOND
     1     1     2 2   
     2     2     3 1   
     3     2     8 1   
     4     3     4 1   
     5     4     5 1   
     6     4     6 1   
     7     4     7 1   
     8     5    34 1   
     9     5    35 1   
    10     5    36 1   
    11     6    37 1   
    12     6    38 1   
    13     6    39 1   
    14     7    40 1   
    15     7    41 1   
    16     7    42 1   
    17     8     9 1   
    18     8    43 1   
    19     9    10 1   
    20     9    14 1   
    21     9    44 1   
    22    10    11 1   
    23    10    12 1   
    24    10    13 1   
    25    11    45 1   
    26    11    46 1   
    27    11    47 1   
    28    12    48 1   
    29    12    49 1   
    30    12    50 1   
    31    13    51 1   
    32    13    52 1   
    33    13    53 1   
    34    14    15 2   
    35    14    16 1   
    36    16    17 1   
    37    16    18 1   
    38    17    20 1   
    39    17    54 1   
    40    17    55 1   
    41    18    19 1   
    42    18    24 1   
    43    18    56 1   
    44    19    20 1   
    45    19    21 1   
    46    19    57 1   
    47    20    21 1   
    48    20    58 1   
    49    21    22 1   
    50    21    23 1   
    51    22    59 1   
    52    22    60 1   
    53    22    61 1   
    54    23    62 1   
    55    23    63 1   
    56    23    64 1   
    57    24    25 2   
    58    24    26 1   
    59    26    27 1   
    60    26    65 1   
    61    27    28 1   
    62    27    32 1   
    63    27    66 1   
    64    28    29 1   
    65    28    67 1   
    66    28    68 1   
    67    29    30 1   
    68    29    31 1   
    69    29    69 1   
    70    30    31 1   
    71    30    70 1   
    72    30    71 1   
    73    31    72 1   
    74    31    73 1   
    75    32    33 1   
    76    32    74 1   
    77    32    77 1   
    78    33    78 2   
    79    33    79 1   
    80    75    79 1   
    81    76    79 1   
    82    77    80 1   
@<TRIPOS>SUBSTRUCTURE
     1 HUD         1 TEMP              0 ****  ****    0 ROOT
