@<TRIPOS>MOLECULE
HUD
   80    82     1     0     0
SMALL
abcg2


@<TRIPOS>ATOM
      1 O2          -4.5680     0.6250     0.5580 o          1 HUD      -0.559000
      2 C1          -4.2530    -0.3830    -0.0420 c          1 HUD       0.653100
      3 O3          -4.9690    -0.9750    -0.9970 os         1 HUD      -0.475100
      4 C4          -6.2560    -0.4690    -1.4390 c3         1 HUD       0.225000
      5 C6          -6.6710    -1.4750    -2.5060 c3         1 HUD      -0.108767
      6 C5          -7.2700    -0.4820    -0.3010 c3         1 HUD      -0.108767
      7 C7          -6.1140     0.9160    -2.0580 c3         1 HUD      -0.108767
      8 N8          -3.1130    -1.0760     0.1710 ns         1 HUD      -0.498900
      9 C9          -2.0940    -0.6450     1.0960 c3         1 HUD       0.063700
     10 C10         -1.9170    -1.6220     2.2900 c3         1 HUD      -0.046000
     11 C11         -1.5020    -3.0270     1.8490 c3         1 HUD      -0.089100
     12 C12         -0.8630    -1.0600     3.2450 c3         1 HUD      -0.089100
     13 C13         -3.2570    -1.7100     3.0250 c3         1 HUD      -0.089100
     14 C14         -0.8120    -0.4400     0.2920 c          1 HUD       0.599100
     15 O15         -0.4310    -1.3120    -0.4800 o          1 HUD      -0.618100
     16 N16         -0.1470     0.7220     0.4140 n          1 HUD      -0.391800
     17 C17         -0.4870     1.8620     1.2610 c5         1 HUD       0.132000
     18 C18          1.0730     0.9190    -0.3430 c5         1 HUD       0.056700
     19 C19          1.3530     2.4040    -0.2360 cx         1 HUD      -0.137700
     20 C20          0.3880     2.9820     0.7590 cx         1 HUD      -0.130700
     21 C21          0.3030     3.3810    -0.6880 cx         1 HUD      -0.073000
     22 C22          0.8210     4.7640    -1.0100 c3         1 HUD      -0.065600
     23 C23         -0.8530     2.9770    -1.5730 c3         1 HUD      -0.065600
     24 C24          2.2380     0.1500     0.2810 c          1 HUD       0.605100
     25 O25          2.2570    -0.1330     1.4660 o          1 HUD      -0.607100
     26 N26          3.2420    -0.0930    -0.5760 ns         1 HUD      -0.499900
     27 C27          4.5060    -0.6960    -0.2190 c3         1 HUD       0.098700
     28 C28          4.7060    -2.0460    -0.9070 c3         1 HUD      -0.054400
     29 C29          3.6730    -3.0600    -0.4920 cx         1 HUD      -0.133700
     30 C30          3.3850    -4.2370    -1.3750 cx         1 HUD      -0.124900
     31 C31          2.3660    -3.1500    -1.2140 cx         1 HUD      -0.124900
     32 C33          5.6470     0.2820    -0.5430 c3         1 HUD       0.074300
     33 C36          5.4270     1.6040     0.1930 c          1 HUD       0.574100
     34 H4          -6.7790    -2.4770    -2.0880 hc         1 HUD       0.049256
     35 H5          -7.6330    -1.1870    -2.9320 hc         1 HUD       0.049256
     36 H6          -5.9450    -1.5180    -3.3190 hc         1 HUD       0.049256
     37 H1          -7.0640     0.2750     0.4510 hc         1 HUD       0.049256
     38 H2          -8.2640    -0.2860    -0.7070 hc         1 HUD       0.049256
     39 H3          -7.3000    -1.4590     0.1840 hc         1 HUD       0.049256
     40 H7          -5.3570     0.9180    -2.8450 hc         1 HUD       0.049256
     41 H8          -7.0620     1.2040    -2.5130 hc         1 HUD       0.049256
     42 H9          -5.8540     1.6730    -1.3220 hc         1 HUD       0.049256
     43 H10         -2.9140    -1.8710    -0.4160 hn         1 HUD       0.341500
     44 H11         -2.4370     0.2980     1.5180 h1         1 HUD       0.088700
     45 H12         -0.5020    -3.0480     1.4190 hc         1 HUD       0.040367
     46 H13         -1.5070    -3.6920     2.7130 hc         1 HUD       0.040367
     47 H14         -2.1950    -3.4500     1.1180 hc         1 HUD       0.040367
     48 H15          0.1140    -0.9560     2.7710 hc         1 HUD       0.040367
     49 H16         -1.1560    -0.0820     3.6340 hc         1 HUD       0.040367
     50 H17         -0.7420    -1.7260     4.1010 hc         1 HUD       0.040367
     51 H18         -3.1510    -2.3160     3.9270 hc         1 HUD       0.040367
     52 H19         -3.6160    -0.7240     3.3260 hc         1 HUD       0.040367
     53 H20         -4.0270    -2.1760     2.4080 hc         1 HUD       0.040367
     54 H21         -1.5490     2.1050     1.1830 h1         1 HUD       0.062200
     55 H22         -0.2650     1.6580     2.3110 h1         1 HUD       0.062200
     56 H23          0.9280     0.6000    -1.3800 h1         1 HUD       0.089700
     57 H24          2.3900     2.7180    -0.2680 hc         1 HUD       0.113700
     58 H25          0.7050     3.7180     1.4880 hc         1 HUD       0.099700
     59 H26          1.1700     4.8150    -2.0440 hc         1 HUD       0.041700
     60 H27          0.0350     5.5110    -0.8880 hc         1 HUD       0.041700
     61 H28          1.6540     5.0520    -0.3660 hc         1 HUD       0.041700
     62 H29         -1.2650     1.9950    -1.3510 hc         1 HUD       0.041700
     63 H30         -1.6660     3.7000    -1.4800 hc         1 HUD       0.041700
     64 H31         -0.5400     2.9720    -2.6190 hc         1 HUD       0.041700
     65 H32          3.0980     0.1240    -1.5500 hn         1 HUD       0.323500
     66 H33          4.4900    -0.8630     0.8590 h1         1 HUD       0.076700
     67 H34          4.6890    -1.9180    -1.9930 hc         1 HUD       0.054200
     68 H35          5.7060    -2.4120    -0.6530 hc         1 HUD       0.054200
     69 H36          3.6360    -3.2500     0.5770 hc         1 HUD       0.077700
     70 H37          3.9170    -4.3020    -2.3170 hc         1 HUD       0.072950
     71 H38          3.1940    -5.1960    -0.9090 hc         1 HUD       0.072950
     72 H39          1.4750    -3.3480    -0.6340 hc         1 HUD       0.072950
     73 H40          2.2060    -2.4730    -2.0440 hc         1 HUD       0.072950
     74 H42          6.5880    -0.1640    -0.1960 h1         1 HUD       0.072700
     75 H43          5.3460     2.3850     2.0750 hn         1 HUD       0.322500
     76 H44          5.7610     0.7180     2.0120 hn         1 HUD       0.322500
     77 O32          5.7220     0.5300    -1.9160 oh         1 HUD      -0.655000
     78 O34          5.1590     2.6140    -0.4470 o          1 HUD      -0.623100
     79 N35          5.5350     1.5650     1.5200 nt         1 HUD      -0.583000
     80 H41          5.4510     1.4520    -2.0450 ho         1 HUD       0.476000
@<TRIPOS>BOND
     1     1     2 2   
     2     2     3 1   
     3     2     8 1   
     4     3     4 1   
     5     4     5 1   
     6     4     6 1   
     7     4     7 1   
     8     5    34 1   
     9     5    35 1   
    10     5    36 1   
    11     6    37 1   
    12     6    38 1   
    13     6    39 1   
    14     7    40 1   
    15     7    41 1   
    16     7    42 1   
    17     8     9 1   
    18     8    43 1   
    19     9    10 1   
    20     9    14 1   
    21     9    44 1   
    22    10    11 1   
    23    10    12 1   
    24    10    13 1   
    25    11    45 1   
    26    11    46 1   
    27    11    47 1   
    28    12    48 1   
    29    12    49 1   
    30    12    50 1   
    31    13    51 1   
    32    13    52 1   
    33    13    53 1   
    34    14    15 2   
    35    14    16 1   
    36    16    17 1   
    37    16    18 1   
    38    17    20 1   
    39    17    54 1   
    40    17    55 1   
    41    18    19 1   
    42    18    24 1   
    43    18    56 1   
    44    19    20 1   
    45    19    21 1   
    46    19    57 1   
    47    20    21 1   
    48    20    58 1   
    49    21    22 1   
    50    21    23 1   
    51    22    59 1   
    52    22    60 1   
    53    22    61 1   
    54    23    62 1   
    55    23    63 1   
    56    23    64 1   
    57    24    25 2   
    58    24    26 1   
    59    26    27 1   
    60    26    65 1   
    61    27    28 1   
    62    27    32 1   
    63    27    66 1   
    64    28    29 1   
    65    28    67 1   
    66    28    68 1   
    67    29    30 1   
    68    29    31 1   
    69    29    69 1   
    70    30    31 1   
    71    30    70 1   
    72    30    71 1   
    73    31    72 1   
    74    31    73 1   
    75    32    33 1   
    76    32    74 1   
    77    32    77 1   
    78    33    78 2   
    79    33    79 1   
    80    75    79 1   
    81    76    79 1   
    82    77    80 1   
@<TRIPOS>SUBSTRUCTURE
     1 HUD         1 TEMP              0 ****  ****    0 ROOT
