@<TRIPOS>MOLECULE
HUE
   89    95     1     0     0
SMALL
No Charge or Current Charge


@<TRIPOS>ATOM
      1 C2          -6.0850    -1.5400    -2.6440 ca         1 HUE       0.145000
      2 C3          -4.8590    -2.1750    -2.3590 ca         1 HUE      -0.126000
      3 C41          0.3040     1.8790    -1.8820 ca         1 HUE      -0.109000
      4 C43          0.1070     1.0800    -3.0170 ca         1 HUE       0.113000
      5 C44         -1.1890     0.8670    -3.5120 ca         1 HUE      -0.109000
      6 C46         -2.2930     1.4500    -2.8650 ca         1 HUE      -0.079000
      7 C49         -0.8950    -1.0280     0.5040 c          1 HUE       0.622300
      8 C53          1.2880    -2.2800     0.4740 c3         1 HUE       0.095000
      9 C56          2.1300    -1.4220    -0.5060 c3         1 HUE       0.160800
     10 C60          4.3320    -0.8710    -1.4780 c6         1 HUE       0.166800
     11 C11         -5.5580     0.2430    -1.0530 ca         1 HUE      -0.046000
     12 C13         -6.4380    -0.3400    -1.9880 ca         1 HUE      -0.136000
     13 C15         -3.1610     1.0990     0.9260 cc         1 HUE      -0.129800
     14 C17         -3.0230     3.2170     1.5400 cc         1 HUE       0.399400
     15 C20         -2.7390     1.1870     2.2400 cd         1 HUE       0.343500
     16 C21         -2.5550     0.1070     3.2480 ca         1 HUE      -0.093500
     17 C22         -1.8920     0.3880     4.4660 ca         1 HUE      -0.086500
     18 C24         -1.7270    -0.6060     5.4460 ca         1 HUE      -0.119500
     19 C26         -2.2430    -1.8940     5.2370 ca         1 HUE      -0.110000
     20 C28         -2.9370    -2.1790     4.0520 ca         1 HUE      -0.119500
     21 C30         -3.1020    -1.1860     3.0710 ca         1 HUE      -0.086500
     22 Cl1         -7.1930    -2.2620    -3.8020 cl         1 HUE      -0.203000
     23 C5          -4.0030    -1.5700    -1.4290 ca         1 HUE      -0.037200
     24 N6          -2.7840    -2.0410    -0.9810 na         1 HUE      -0.208700
     25 C8          -2.2870    -1.0730    -0.0580 cd         1 HUE      -0.106300
     26 C9          -3.2570    -0.0660     0.0800 cc         1 HUE       0.001600
     27 C10         -4.3250    -0.3910    -0.8250 ca         1 HUE      -0.109800
     28 N16         -3.2910     2.3960     0.4590 na         1 HUE      -0.166500
     29 N19         -2.6990     2.5180     2.6170 nd         1 HUE      -0.674000
     30 C32         -3.3190     2.8090    -0.9680 c3         1 HUE       0.136600
     31 C34         -3.4350     4.3350    -1.1800 c3         1 HUE      -0.104100
     32 C38         -2.1070     2.2480    -1.7170 ca         1 HUE      -0.103300
     33 C39         -0.7980     2.4620    -1.2330 ca         1 HUE      -0.079000
     34 O50         -0.4040    -0.0900     1.1120 o          1 HUE      -0.547100
     35 N51         -0.1540    -2.1570     0.2190 ns         1 HUE      -0.510900
     36 N59          3.6010    -1.5710    -0.3760 n3         1 HUE      -0.724600
     37 C63          5.8810    -1.0420    -1.3750 c6         1 HUE       0.174300
     38 N66          6.4120    -0.5800    -0.0540 n3         1 HUE      -0.736600
     39 C67          5.6880    -1.2800     1.0600 c6         1 HUE       0.174300
     40 C70          4.1370    -1.1180     0.9490 c6         1 HUE       0.166800
     41 C73          7.9070    -0.6340     0.0280 c6         1 HUE       0.191500
     42 C75          8.4500     0.1490     1.2580 c6         1 HUE      -0.088900
     43 C78          9.9990     0.1940     1.2570 c6         1 HUE      -0.072400
     44 C81         10.5960    -1.2340     1.2220 c6         1 HUE      -0.076400
     45 C84         10.0560    -2.0380     0.0140 c6         1 HUE      -0.072400
     46 C87          8.5060    -2.0760     0.0080 c6         1 HUE      -0.088900
     47 H1          -4.5940    -3.1110    -2.8430 ha         1 HUE       0.133000
     48 H2           1.3090     2.0390    -1.4980 ha         1 HUE       0.132500
     49 H3          -1.3400     0.2440    -4.3890 ha         1 HUE       0.132500
     50 H4          -3.2950     1.2610    -3.2450 ha         1 HUE       0.128500
     51 H5           1.5750    -3.3340     0.3680 h1         1 HUE       0.062200
     52 H6           1.4890    -1.9760     1.5090 h1         1 HUE       0.062200
     53 H7           1.8310    -1.7060    -1.5240 h1         1 HUE       0.032700
     54 H8           1.8540    -0.3670    -0.3770 h1         1 HUE       0.032700
     55 H10          4.0970     0.2040    -1.4630 h1         1 HUE       0.036950
     56 H11         -5.8360     1.1470    -0.5170 ha         1 HUE       0.130000
     57 H12         -7.3960     0.1280    -2.1970 ha         1 HUE       0.132000
     58 H13         -3.0400     4.2980     1.4720 h5         1 HUE       0.054100
     59 H14         -1.4810     1.3780     4.6500 ha         1 HUE       0.120000
     60 H15         -1.2000    -0.3760     6.3690 ha         1 HUE       0.106500
     61 H16         -2.1180    -2.6630     5.9960 ha         1 HUE       0.106000
     62 H17         -3.3600    -3.1700     3.8960 ha         1 HUE       0.106500
     63 H18         -3.6840    -1.4310     2.1890 ha         1 HUE       0.120000
     64 H19         -2.3050    -2.8660    -1.3270 hn         1 HUE       0.357000
     65 H20         -4.2190     2.3790    -1.4150 h1         1 HUE       0.074700
     66 H21         -3.5220     4.5620    -2.2490 hc         1 HUE       0.052700
     67 H22         -4.3260     4.7300    -0.6770 hc         1 HUE       0.052700
     68 H23         -2.5520     4.8590    -0.7950 hc         1 HUE       0.052700
     69 H24         -0.6340     3.0630    -0.3410 ha         1 HUE       0.128500
     70 H25         -0.6220    -2.9170    -0.2540 hn         1 HUE       0.305500
     71 H27          6.1140    -2.1040    -1.5380 h1         1 HUE       0.038700
     72 H28          6.3510    -0.4780    -2.1940 h1         1 HUE       0.038700
     73 H30          5.9170    -2.3550     1.0530 h1         1 HUE       0.038700
     74 H31          5.9980    -0.8890     2.0390 h1         1 HUE       0.038700
     75 H32          3.8850    -0.0590     1.1140 h1         1 HUE       0.036950
     76 H33          3.6780    -1.6880     1.7680 h1         1 HUE       0.036950
     77 H34          8.3040    -0.1170    -0.8600 h1         1 HUE       0.051700
     78 H35          8.0540     1.1740     1.2520 hc         1 HUE       0.043700
     79 H36          8.1120    -0.3140     2.1940 hc         1 HUE       0.043700
     80 H37         10.3530     0.7660     0.3880 hc         1 HUE       0.039200
     81 H38         10.3580     0.7260     2.1490 hc         1 HUE       0.039200
     82 H39         11.6930    -1.1780     1.1730 hc         1 HUE       0.038700
     83 H40         10.3520    -1.7600     2.1550 hc         1 HUE       0.038700
     84 H41         10.4180    -1.5880    -0.9210 hc         1 HUE       0.039200
     85 H42         10.4540    -3.0620     0.0410 hc         1 HUE       0.039200
     86 H43          8.1600    -2.6470     0.8800 hc         1 HUE       0.043700
     87 H44          8.1710    -2.6240    -0.8810 hc         1 HUE       0.043700
     88 Cl2          1.4860     0.3400    -3.8180 cl         1 HUE      -0.207000
     89 H9           4.0030    -1.2560    -2.4550 h1         1 HUE       0.036950
@<TRIPOS>BOND
     1     1     2 ar  
     2     1    12 ar  
     3     1    22 1   
     4     2    23 ar  
     5     2    47 1   
     6     3     4 ar  
     7     3    33 ar  
     8     3    48 1   
     9     4     5 ar  
    10     4    88 1   
    11     5     6 ar  
    12     5    49 1   
    13     6    32 ar  
    14     6    50 1   
    15     7    25 1   
    16     7    34 2   
    17     7    35 1   
    18     8     9 1   
    19     8    35 1   
    20     8    51 1   
    21     8    52 1   
    22     9    36 1   
    23     9    53 1   
    24     9    54 1   
    25    10    36 1   
    26    10    37 1   
    27    10    55 1   
    28    10    89 1   
    29    11    12 ar  
    30    11    27 ar  
    31    11    56 1   
    32    12    57 1   
    33    13    15 2   
    34    13    26 1   
    35    13    28 1   
    36    14    28 1   
    37    14    29 2   
    38    14    58 1   
    39    15    16 1   
    40    15    29 1   
    41    16    17 ar  
    42    16    21 ar  
    43    17    18 ar  
    44    17    59 1   
    45    18    19 ar  
    46    18    60 1   
    47    19    20 ar  
    48    19    61 1   
    49    20    21 ar  
    50    20    62 1   
    51    21    63 1   
    52    23    24 1   
    53    23    27 ar  
    54    24    25 1   
    55    24    64 1   
    56    25    26 2   
    57    26    27 1   
    58    28    30 1   
    59    30    31 1   
    60    30    32 1   
    61    30    65 1   
    62    31    66 1   
    63    31    67 1   
    64    31    68 1   
    65    32    33 ar  
    66    33    69 1   
    67    35    70 1   
    68    36    40 1   
    69    37    38 1   
    70    37    71 1   
    71    37    72 1   
    72    38    39 1   
    73    38    41 1   
    74    39    40 1   
    75    39    73 1   
    76    39    74 1   
    77    40    75 1   
    78    40    76 1   
    79    41    42 1   
    80    41    46 1   
    81    41    77 1   
    82    42    43 1   
    83    42    78 1   
    84    42    79 1   
    85    43    44 1   
    86    43    80 1   
    87    43    81 1   
    88    44    45 1   
    89    44    82 1   
    90    44    83 1   
    91    45    46 1   
    92    45    84 1   
    93    45    85 1   
    94    46    86 1   
    95    46    87 1   
@<TRIPOS>SUBSTRUCTURE
     1 HUE         1 TEMP              0 ****  ****    0 ROOT
