@<TRIPOS>MOLECULE
HUE
   89    95     1     0     0
SMALL
bcc


@<TRIPOS>ATOM
      1 C2          -5.6000    -1.4130    -3.0760 ca         1 HUE       0.053400
      2 C3          -4.2810    -1.7820    -2.9350 ca         1 HUE      -0.144000
      3 C41          0.3510     2.5400    -0.6690 ca         1 HUE      -0.127000
      4 C43          0.4540     2.0830    -1.9740 ca         1 HUE       0.021400
      5 C44         -0.6720     1.8830    -2.7560 ca         1 HUE      -0.127000
      6 C46         -1.9210     2.1380    -2.2090 ca         1 HUE      -0.097000
      7 C49         -0.7890    -0.6790     0.4010 c          1 HUE       0.689300
      8 C53          1.6340    -0.8570     0.0940 c3         1 HUE       0.095000
      9 C56          2.5440    -1.6730    -0.8150 c3         1 HUE       0.160800
     10 C60          4.6950    -2.7620    -0.8020 c6         1 HUE       0.166800
     11 C11         -5.5740    -0.0520    -1.0880 ca         1 HUE      -0.064000
     12 C13         -6.2540    -0.5580    -2.1730 ca         1 HUE      -0.154000
     13 C15         -3.4540     0.8470     1.1970 cc         1 HUE      -0.144400
     14 C17         -3.7290     2.7850     2.1840 cc         1 HUE       0.399400
     15 C20         -3.5870     0.6860     2.5570 cd         1 HUE       0.408800
     16 C21         -3.5690    -0.5370     3.3610 ca         1 HUE      -0.093500
     17 C22         -3.3790    -0.4510     4.7420 ca         1 HUE      -0.104500
     18 C24         -3.3640    -1.5900     5.5330 ca         1 HUE      -0.137500
     19 C26         -3.5460    -2.8430     4.9610 ca         1 HUE      -0.128000
     20 C28         -3.7450    -2.9400     3.5900 ca         1 HUE      -0.137500
     21 C30         -3.7580    -1.8020     2.7990 ca         1 HUE      -0.104500
     22 CL1         -6.5020    -2.0290    -4.4250 cl         1 HUE      -0.111400
     23 C5          -3.6070    -1.2520    -1.8350 ca         1 HUE      -0.037200
     24 N6          -2.3200    -1.4260    -1.4330 na         1 HUE      -0.158400
     25 C8          -2.1040    -0.7320    -0.2730 cd         1 HUE      -0.106300
     26 C9          -3.2570    -0.0800     0.0920 cc         1 HUE       0.001600
     27 C10         -4.2310    -0.3990    -0.9040 ca         1 HUE      -0.109800
     28 N16         -3.5610     2.2020     0.9780 na         1 HUE      -0.187900
     29 N19         -3.7530     1.9070     3.1490 nd         1 HUE      -0.674000
     30 C32         -3.4230     2.8520    -0.3220 c3         1 HUE       0.107300
     31 C34         -3.7110     4.3440    -0.2410 c3         1 HUE      -0.104100
     32 C38         -2.0510     2.5840    -0.9010 ca         1 HUE      -0.103300
     33 C39         -0.9050     2.7860    -0.1390 ca         1 HUE      -0.097000
     34 O50         -0.7080    -0.4680     1.5990 o          1 HUE      -0.547100
     35 N51          0.2750    -0.8990    -0.3980 ns         1 HUE      -0.577900
     36 N59          3.9210    -1.6140    -0.3710 n3         1 HUE      -0.724600
     37 C63          6.0890    -2.7130    -0.2030 c6         1 HUE       0.174300
     38 N66          6.7640    -1.4880    -0.5820 n3         1 HUE      -0.736600
     39 C67          5.9900    -0.3340    -0.1720 c6         1 HUE       0.174300
     40 C70          4.5950    -0.3910    -0.7680 c6         1 HUE       0.166800
     41 C73          8.1720    -1.4640    -0.2030 c6         1 HUE       0.191500
     42 C75          8.9550    -0.4180    -0.9950 c6         1 HUE      -0.088900
     43 C78         10.4510    -0.5150    -0.7070 c6         1 HUE      -0.072400
     44 C81         10.7390    -0.3870     0.7860 c6         1 HUE      -0.076400
     45 C84          9.9420    -1.4100     1.5890 c6         1 HUE      -0.072400
     46 C87          8.4480    -1.2990     1.2970 c6         1 HUE      -0.088900
     47 H1          -3.7930    -2.4430    -3.6380 ha         1 HUE       0.151000
     48 H2           1.2370     2.6910    -0.0680 ha         1 HUE       0.150500
     49 H3          -0.5820     1.5220    -3.7710 ha         1 HUE       0.150500
     50 H4          -2.8060     1.9700    -2.8120 ha         1 HUE       0.146500
     51 H5           1.6590    -1.2790     1.0980 h1         1 HUE       0.062200
     52 H6           1.9790     0.1790     0.1730 h1         1 HUE       0.062200
     53 H7           2.2120    -2.7130    -0.7810 h1         1 HUE       0.032700
     54 H8           2.4330    -1.3420    -1.8610 h1         1 HUE       0.032700
     55 H10          4.7740    -2.8170    -1.9010 h1         1 HUE       0.036950
     56 H11         -6.0810     0.5980    -0.3860 ha         1 HUE       0.148000
     57 H12         -7.2920    -0.3030    -2.3330 ha         1 HUE       0.150000
     58 H13         -3.8380     3.8500     2.3100 h5         1 HUE       0.054100
     59 H14         -3.2370     0.5190     5.2000 ha         1 HUE       0.138000
     60 H15         -3.2130    -1.4980     6.6010 ha         1 HUE       0.124500
     61 H16         -3.5340    -3.7320     5.5780 ha         1 HUE       0.124000
     62 H17         -3.8990    -3.9090     3.1310 ha         1 HUE       0.124500
     63 H18         -3.9270    -1.9030     1.7360 ha         1 HUE       0.138000
     64 H19         -1.6770    -2.0830    -1.8470 hn         1 HUE       0.306700
     65 H20         -4.1650     2.4060    -0.9870 h1         1 HUE       0.074700
     66 H21         -3.6440     4.7640    -1.2430 hc         1 HUE       0.052700
     67 H22         -4.7150     4.5380     0.1350 hc         1 HUE       0.052700
     68 H23         -2.9910     4.8680     0.3880 hc         1 HUE       0.052700
     69 H24         -0.9810     3.1290     0.8860 ha         1 HUE       0.146500
     70 H25          0.1530    -0.8130    -1.3950 hn         1 HUE       0.305500
     71 H27          6.0050    -2.8360     0.8890 h1         1 HUE       0.038700
     72 H28          6.6620    -3.5660    -0.5780 h1         1 HUE       0.038700
     73 H30          5.8980    -0.2510     0.9230 h1         1 HUE       0.038700
     74 H31          6.4730     0.5790    -0.5230 h1         1 HUE       0.038700
     75 H32          4.6620    -0.3080    -1.8660 h1         1 HUE       0.036950
     76 H33          4.0340     0.4760    -0.4140 h1         1 HUE       0.036950
     77 H34          8.5710    -2.4440    -0.4990 h1         1 HUE       0.051700
     78 H35          8.7600    -0.5500    -2.0620 hc         1 HUE       0.043700
     79 H36          8.6140     0.5890    -0.7310 hc         1 HUE       0.043700
     80 H37         10.8300    -1.4790    -1.0660 hc         1 HUE       0.039200
     81 H38         10.9880     0.2560    -1.2640 hc         1 HUE       0.039200
     82 H39         11.8090    -0.5030     0.9770 hc         1 HUE       0.038700
     83 H40         10.4700     0.6210     1.1200 hc         1 HUE       0.038700
     84 H41         10.2870    -2.4180     1.3330 hc         1 HUE       0.039200
     85 H42         10.1280    -1.2820     2.6580 hc         1 HUE       0.039200
     86 H43          8.0910    -0.3190     1.6350 hc         1 HUE       0.043700
     87 H44          7.8960    -2.0480     1.8720 hc         1 HUE       0.043700
     88 CL2          2.0210     1.7210    -2.6250 cl         1 HUE      -0.115400
     89 H9           4.1980    -3.6750    -0.4670 h1         1 HUE       0.036950
@<TRIPOS>BOND
     1     1     2 ar  
     2     1    12 ar  
     3     1    22 1   
     4     2    23 ar  
     5     2    47 1   
     6     3     4 ar  
     7     3    33 ar  
     8     3    48 1   
     9     4     5 ar  
    10     4    88 1   
    11     5     6 ar  
    12     5    49 1   
    13     6    32 ar  
    14     6    50 1   
    15     7    25 1   
    16     7    34 2   
    17     7    35 1   
    18     8     9 1   
    19     8    35 1   
    20     8    51 1   
    21     8    52 1   
    22     9    36 1   
    23     9    53 1   
    24     9    54 1   
    25    10    36 1   
    26    10    37 1   
    27    10    55 1   
    28    10    89 1   
    29    11    12 ar  
    30    11    27 ar  
    31    11    56 1   
    32    12    57 1   
    33    13    15 2   
    34    13    26 1   
    35    13    28 1   
    36    14    28 1   
    37    14    29 2   
    38    14    58 1   
    39    15    16 1   
    40    15    29 1   
    41    16    17 ar  
    42    16    21 ar  
    43    17    18 ar  
    44    17    59 1   
    45    18    19 ar  
    46    18    60 1   
    47    19    20 ar  
    48    19    61 1   
    49    20    21 ar  
    50    20    62 1   
    51    21    63 1   
    52    23    24 1   
    53    23    27 ar  
    54    24    25 1   
    55    24    64 1   
    56    25    26 2   
    57    26    27 1   
    58    28    30 1   
    59    30    31 1   
    60    30    32 1   
    61    30    65 1   
    62    31    66 1   
    63    31    67 1   
    64    31    68 1   
    65    32    33 ar  
    66    33    69 1   
    67    35    70 1   
    68    36    40 1   
    69    37    38 1   
    70    37    71 1   
    71    37    72 1   
    72    38    39 1   
    73    38    41 1   
    74    39    40 1   
    75    39    73 1   
    76    39    74 1   
    77    40    75 1   
    78    40    76 1   
    79    41    42 1   
    80    41    46 1   
    81    41    77 1   
    82    42    43 1   
    83    42    78 1   
    84    42    79 1   
    85    43    44 1   
    86    43    80 1   
    87    43    81 1   
    88    44    45 1   
    89    44    82 1   
    90    44    83 1   
    91    45    46 1   
    92    45    84 1   
    93    45    85 1   
    94    46    86 1   
    95    46    87 1   
@<TRIPOS>SUBSTRUCTURE
     1 HUE         1 TEMP              0 ****  ****    0 ROOT
