@<TRIPOS>MOLECULE
HUF
   88    93     1     0     0
SMALL
No Charge or Current Charge


@<TRIPOS>ATOM
      1 O2A         24.2380    42.1180     3.4180 o          1 HUF      -0.840000
      2 PA          23.2510    42.3700     2.3310 p5         1 HUF       1.478800
      3 O1A         23.0710    43.8380     2.1350 o          1 HUF      -0.840000
      4 O3A         23.7060    41.6200     1.0230 os         1 HUF      -0.729800
      5 PB          22.9560    41.9290    -0.3310 p5         1 HUF       1.457800
      6 O3B         21.4880    41.6780    -0.2640 o          1 HUF      -0.837500
      7 O2B         23.5660    41.1330    -1.4370 o          1 HUF      -0.837500
      8 O1B         23.2850    43.4910    -0.5300 os         1 HUF      -0.594400
      9 O5          21.8630    41.6130     2.6390 os         1 HUF      -0.581400
     10 C5          21.8600    40.2820     3.1800 c3         1 HUF       0.214600
     11 C4          22.0980    40.3170     4.7290 c5         1 HUF       0.140300
     12 C3          23.2110    39.3480     5.2340 c5         1 HUF       0.149300
     13 O3          23.6000    39.5830     6.5970 oh         1 HUF      -0.728000
     14 C2          22.4540    37.9890     5.1400 c5         1 HUF       0.085300
     15 O2          23.0420    37.0130     6.0280 oh         1 HUF      -0.712000
     16 C1          20.9770    38.3950     5.5220 c5         1 HUF       0.271300
     17 O4          20.9180    39.8410     5.4290 os         1 HUF      -0.460000
     18 N9          19.9120    37.8060     4.7100 na         1 HUF      -0.283300
     19 C9          19.7670    36.5060     4.2900 ca         1 HUF       0.121500
     20 C7          18.5760    36.4280     3.6120 ca         1 HUF      -0.093600
     21 N7          17.9030    37.6440     3.5760 nc         1 HUF      -0.574100
     22 C8          18.7410    38.4470     4.2600 cd         1 HUF       0.440700
     23 N3          20.5640    35.4300     4.4540 nb         1 HUF      -0.206000
     24 C10         20.1210    34.2720     3.9080 ca         1 HUF       0.159900
     25 N1          18.9680    34.0910     3.2220 nb         1 HUF      -0.322000
     26 C6          18.1970    35.1790     3.0740 ca         1 HUF       0.440900
     27 N6          17.0350    34.9940     2.3920 nv         1 HUF      -1.077900
     28 C12         31.2760    49.7840    -2.5090 ca         1 HUF      -0.052300
     29 C13         30.1990    49.3170    -1.7310 ca         1 HUF      -0.098000
     30 C14         28.9740    50.0210    -1.6780 ca         1 HUF      -0.004000
     31 C15         28.8440    51.2060    -2.4230 ca         1 HUF      -0.059000
     32 C16         29.9310    51.7010    -3.1710 ca         1 HUF      -0.104000
     33 C17         31.1410    50.9870    -3.2370 ca         1 HUF      -0.090300
     34 C18         32.2940    51.5420    -4.0700 c3         1 HUF      -0.037800
     35 C20         27.0810    51.7910    -0.9360 cc         1 HUF      -0.350600
     36 C21         27.1080    50.5460    -0.3250 cd         1 HUF       0.197600
     37 C22         25.6950    51.3140     1.4850 c          1 HUF       0.630000
     38 C23         26.4060    52.9070    -0.2210 c          1 HUF       0.632600
     39 C24         27.7530    48.0610    -0.6840 c3         1 HUF       0.055600
     40 C25         26.3230    47.5070    -0.4170 c3         1 HUF       0.164300
     41 C26         26.1640    46.0000    -0.8190 c3         1 HUF       0.120300
     42 C27         24.7640    45.4020    -0.4300 c3         1 HUF       0.167300
     43 C28         24.6100    43.9110    -0.8610 c3         1 HUF       0.205600
     44 N29         27.6680    51.9780    -2.2020 n          1 HUF      -0.010800
     45 N30         26.3870    50.3610     0.8210 ns         1 HUF      -0.517600
     46 N31         25.7700    52.5420     0.9250 ns         1 HUF      -0.473500
     47 N32         27.8720    49.5230    -0.9370 na         1 HUF      -0.072000
     48 O33         25.9640    53.2530    -3.2190 o          1 HUF      -0.581100
     49 O36         26.0110    47.6420     0.9790 oh         1 HUF      -0.756000
     50 O37         26.3930    45.8570    -2.2370 oh         1 HUF      -0.681000
     51 O38         24.5390    45.5580     0.9990 oh         1 HUF      -0.843000
     52 H3          20.9020    39.7950     2.9620 h1         1 HUF       0.041200
     53 H4          22.6430    39.6780     2.7020 h1         1 HUF       0.041200
     54 H5          22.3010    41.3500     5.0400 h1         1 HUF       0.096700
     55 H6          24.0880    39.3680     4.5690 h1         1 HUF       0.124700
     56 H7          23.6280    38.6660     6.9700 ho         1 HUF       0.508000
     57 H8          22.4830    37.6250     4.1020 h1         1 HUF       0.081700
     58 H9          22.6240    36.1410     5.8250 ho         1 HUF       0.507000
     59 H10         20.7610    38.0990     6.5570 h2         1 HUF       0.097700
     60 H11         18.5660    39.4980     4.4680 h5         1 HUF       0.098800
     61 H12         20.7560    33.3980     4.0350 h5         1 HUF       0.031100
     62 H13         16.6850    34.0450     2.2970 hn         1 HUF       0.500000
     63 H14         16.3410    35.7350     2.4570 hn         1 HUF       0.500000
     64 H15         32.8200    48.6640    -3.5570 hc         1 HUF       0.049033
     65 H16         33.4170    49.5870    -2.1640 hc         1 HUF       0.049033
     66 H17         32.5200    48.0860    -1.9160 hc         1 HUF       0.049033
     67 H18         30.3280    48.4000    -1.1620 ha         1 HUF       0.146000
     68 H19         29.8520    52.6550    -3.6870 ha         1 HUF       0.116000
     69 H20         33.1630    51.7670    -3.4410 hc         1 HUF       0.037033
     70 H21         32.6090    50.8250    -4.8380 hc         1 HUF       0.037033
     71 H22         32.0160    52.4680    -4.5870 hc         1 HUF       0.037033
     72 H23         27.7240    52.7850    -4.1530 h5         1 HUF       0.009200
     73 H24         28.1550    47.5530    -1.5690 h1         1 HUF       0.060700
     74 H25         28.4030    47.7970     0.1600 h1         1 HUF       0.060700
     75 H26         25.6060    48.0840    -1.0180 h1         1 HUF       0.032700
     76 H27         26.9310    45.4320    -0.2740 h1         1 HUF       0.040700
     77 H28         24.0010    45.9740    -0.9770 h1         1 HUF       0.040700
     78 H29         24.7720    43.8150    -1.9420 h1         1 HUF       0.017200
     79 H30         25.3640    43.3020    -0.3440 h1         1 HUF       0.017200
     80 H31         26.2950    49.4200     1.2060 hn         1 HUF       0.476000
     81 H32         25.2940    53.2800     1.4170 hn         1 HUF       0.335500
     82 H33         25.3940    46.8500     1.1490 ho         1 HUF       0.584000
     83 H34         26.8570    45.0020    -2.3820 ho         1 HUF       0.447000
     84 H35         23.8780    44.8300     1.3080 ho         1 HUF       0.633000
     85 O34         25.0690    51.0860     2.5010 o          1 HUF      -0.564000
     86 C11         32.5780    48.9870    -2.5370 c3         1 HUF      -0.051800
     87 C19         27.0830    52.7430    -3.2540 c          1 HUF       0.566700
     88 O35         26.4260    54.0780    -0.5610 o          1 HUF      -0.539000
@<TRIPOS>BOND
     1     1     2 1   
     2     2     3 1   
     3     2     4 1   
     4     2     9 1   
     5     4     5 1   
     6     5     6 1   
     7     5     7 1   
     8     5     8 1   
     9     8    43 1   
    10     9    10 1   
    11    10    11 1   
    12    10    52 1   
    13    10    53 1   
    14    11    12 1   
    15    11    17 1   
    16    11    54 1   
    17    12    13 1   
    18    12    14 1   
    19    12    55 1   
    20    13    56 1   
    21    14    15 1   
    22    14    16 1   
    23    14    57 1   
    24    15    58 1   
    25    16    17 1   
    26    16    18 1   
    27    16    59 1   
    28    18    19 1   
    29    18    22 1   
    30    19    20 ar  
    31    19    23 ar  
    32    20    21 1   
    33    20    26 ar  
    34    21    22 2   
    35    22    60 1   
    36    23    24 ar  
    37    24    25 ar  
    38    24    61 1   
    39    25    26 ar  
    40    26    27 1   
    41    27    62 1   
    42    27    63 1   
    43    28    29 ar  
    44    28    33 ar  
    45    28    86 1   
    46    29    30 ar  
    47    29    67 1   
    48    30    31 ar  
    49    30    47 1   
    50    31    32 ar  
    51    31    44 1   
    52    32    33 ar  
    53    32    68 1   
    54    33    34 1   
    55    34    69 1   
    56    34    70 1   
    57    34    71 1   
    58    35    36 2   
    59    35    38 1   
    60    35    44 1   
    61    36    45 1   
    62    36    47 1   
    63    37    45 1   
    64    37    46 1   
    65    37    85 2   
    66    38    46 1   
    67    38    88 2   
    68    39    40 1   
    69    39    47 1   
    70    39    73 1   
    71    39    74 1   
    72    40    41 1   
    73    40    49 1   
    74    40    75 1   
    75    41    42 1   
    76    41    50 1   
    77    41    76 1   
    78    42    43 1   
    79    42    51 1   
    80    42    77 1   
    81    43    78 1   
    82    43    79 1   
    83    44    87 1   
    84    45    80 1   
    85    46    81 1   
    86    48    87 2   
    87    49    82 1   
    88    50    83 1   
    89    51    84 1   
    90    64    86 1   
    91    65    86 1   
    92    66    86 1   
    93    72    87 1   
@<TRIPOS>SUBSTRUCTURE
     1 HUF         1 TEMP              0 ****  ****    0 ROOT
