@<TRIPOS>MOLECULE
HUF
   88    93     1     0     0
SMALL
bcc


@<TRIPOS>ATOM
      1 O2A         24.3430    42.8820     2.5100 o          1 HUF      -0.840000
      2 PA          23.0360    43.5950     2.6300 p5         1 HUF       1.478800
      3 O1A         22.9760    45.0850     2.8570 o          1 HUF      -0.840000
      4 O3A         22.1810    43.1840     1.2980 os         1 HUF      -0.729800
      5 PB          20.7440    43.8040     0.7560 p5         1 HUF       1.457800
      6 O3B         19.7840    43.9600     1.8870 o          1 HUF      -0.837500
      7 O2B         20.4230    43.0120    -0.4700 o          1 HUF      -0.837500
      8 O1B         21.1980    45.3230     0.3470 os         1 HUF      -0.571200
      9 O5          22.1460    42.9540     3.8440 os         1 HUF      -0.558200
     10 C5          21.7550    41.5990     3.7720 c3         1 HUF       0.191400
     11 C4          22.2060    40.8550     5.0210 c5         1 HUF       0.117100
     12 C3          23.7160    40.7140     5.1670 c5         1 HUF       0.126100
     13 O3          24.0030    40.5460     6.5340 oh         1 HUF      -0.605800
     14 C2          23.9680    39.4310     4.3840 c5         1 HUF       0.062100
     15 O2          25.1850    38.8460     4.7280 oh         1 HUF      -0.589800
     16 C1          22.7390    38.6010     4.7820 c5         1 HUF       0.218800
     17 O4          21.6920    39.5190     4.9500 os         1 HUF      -0.413600
     18 N9          22.3610    37.6020     3.8140 na         1 HUF      -0.254000
     19 C9          22.2080    36.2640     4.0480 ca         1 HUF       0.449800
     20 C7          21.8120    35.7250     2.8340 ca         1 HUF      -0.224200
     21 N7          21.7130    36.7020     1.8760 nc         1 HUF      -0.574100
     22 C8          22.0440    37.7950     2.4940 cd         1 HUF       0.440700
     23 N3          22.3950    35.5980     5.1840 nb         1 HUF      -0.733000
     24 C10         22.1550    34.3060     5.0390 ca         1 HUF       0.685900
     25 N1          21.7770    33.6520     3.9440 nb         1 HUF      -0.848000
     26 C6          21.5930    34.3360     2.8090 ca         1 HUF       0.769200
     27 N6          21.2180    33.6840     1.7080 nv         1 HUF      -0.967500
     28 C12         29.2580    47.0040    -0.8210 ca         1 HUF      -0.052300
     29 C13         28.0620    47.5950    -1.2160 ca         1 HUF      -0.116000
     30 C14         28.0010    48.9370    -1.5740 ca         1 HUF       0.046700
     31 C15         29.1780    49.6810    -1.5430 ca         1 HUF      -0.008300
     32 C16         30.3620    49.1120    -1.1070 ca         1 HUF      -0.122000
     33 C17         30.4260    47.7710    -0.7510 ca         1 HUF      -0.090300
     34 C18         31.7190    47.1650    -0.2940 c3         1 HUF      -0.037800
     35 C20         27.8990    51.6730    -1.7300 cc         1 HUF      -0.299900
     36 C21         26.7530    50.9320    -1.8010 cd         1 HUF       0.248300
     37 C22         25.3990    52.9010    -1.4420 c          1 HUF       0.839500
     38 C23         27.8660    53.0500    -1.3460 c          1 HUF       0.775100
     39 C24         25.6200    48.8080    -2.2960 c3         1 HUF       0.026300
     40 C25         24.6820    48.4820    -1.1110 c3         1 HUF       0.141100
     41 C26         23.9120    47.1920    -1.4310 c3         1 HUF       0.097100
     42 C27         22.9690    46.7750    -0.2910 c3         1 HUF       0.144100
     43 C28         22.1570    45.5470    -0.6680 c3         1 HUF       0.182400
     44 N29         29.1100    51.0100    -2.0160 n          1 HUF      -0.112200
     45 N30         25.5450    51.5510    -1.6770 ns         1 HUF      -0.471100
     46 N31         26.5750    53.5730    -1.2760 ns         1 HUF      -0.607500
     47 N32         26.8020    49.5830    -1.9480 na         1 HUF      -0.144100
     48 O33         29.7250    52.4310    -3.6890 o          1 HUF      -0.581100
     49 O36         25.4330    48.4190     0.0660 oh         1 HUF      -0.633800
     50 O37         23.1910    47.4590    -2.6150 oh         1 HUF      -0.618800
     51 O38         23.7850    46.5490     0.8350 oh         1 HUF      -0.720800
     52 H3          20.6650    41.5480     3.7030 h1         1 HUF       0.041200
     53 H4          22.1480    41.1000     2.8810 h1         1 HUF       0.041200
     54 H5          21.7850    41.3450     5.9050 h1         1 HUF       0.096700
     55 H6          24.2550    41.5630     4.7360 h1         1 HUF       0.124700
     56 H7          24.9370    40.3280     6.6250 ho         1 HUF       0.409000
     57 H8          23.9260    39.6670     3.3120 h1         1 HUF       0.081700
     58 H9          25.3970    38.1570     4.0910 ho         1 HUF       0.408000
     59 H10         22.9450    38.0580     5.7100 h2         1 HUF       0.097700
     60 H11         22.0700    38.7740     2.0400 h5         1 HUF       0.098800
     61 H12         22.2840    33.6940     5.9260 h5         1 HUF       0.031100
     62 H13         21.0580    32.6920     1.7350 hn         1 HUF       0.444800
     63 H14         21.0590    34.1710     0.8440 hn         1 HUF       0.444800
     64 H15         29.9810    44.9880    -1.0520 hc         1 HUF       0.049033
     65 H16         29.5900    45.4210     0.6000 hc         1 HUF       0.049033
     66 H17         28.2950    45.1000    -0.5500 hc         1 HUF       0.049033
     67 H18         27.1710    46.9840    -1.2230 ha         1 HUF       0.164000
     68 H19         31.2530    49.7270    -1.0580 ha         1 HUF       0.134000
     69 H20         31.6380    46.7710     0.7220 hc         1 HUF       0.037033
     70 H21         32.0210    46.3310    -0.9300 hc         1 HUF       0.037033
     71 H22         32.5240    47.8980    -0.3020 hc         1 HUF       0.037033
     72 H23         30.7170    50.7110    -3.2510 h5         1 HUF       0.009200
     73 H24         25.0750    49.3370    -3.0780 h1         1 HUF       0.060700
     74 H25         25.9760    47.8900    -2.7640 h1         1 HUF       0.060700
     75 H26         23.9150    49.2730    -1.0300 h1         1 HUF       0.032700
     76 H27         24.6400    46.3820    -1.5840 h1         1 HUF       0.040700
     77 H28         22.2640    47.6040    -0.1120 h1         1 HUF       0.040700
     78 H29         21.6500    45.7120    -1.6220 h1         1 HUF       0.017200
     79 H30         22.8360    44.6960    -0.7970 h1         1 HUF       0.017200
     80 H31         24.6830    51.0260    -1.7110 hn         1 HUF       0.362500
     81 H32         26.4950    54.5570    -1.0530 hn         1 HUF       0.335500
     82 H33         24.9710    47.7990     0.6620 ho         1 HUF       0.485000
     83 H34         23.1870    46.6730    -3.1680 ho         1 HUF       0.408000
     84 H35         23.3470    46.0390     1.5690 ho         1 HUF       0.534000
     85 O34         24.3080    53.4240    -1.3700 o          1 HUF      -0.639500
     86 C11         29.2780    45.5540    -0.4380 c3         1 HUF      -0.051800
     87 C19         29.8940    51.4140    -3.0570 c          1 HUF       0.566700
     88 O35         28.8290    53.7550    -1.1070 o          1 HUF      -0.614500
@<TRIPOS>BOND
     1     1     2 1   
     2     2     3 1   
     3     2     4 1   
     4     2     9 1   
     5     4     5 1   
     6     5     6 1   
     7     5     7 1   
     8     5     8 1   
     9     8    43 1   
    10     9    10 1   
    11    10    11 1   
    12    10    52 1   
    13    10    53 1   
    14    11    12 1   
    15    11    17 1   
    16    11    54 1   
    17    12    13 1   
    18    12    14 1   
    19    12    55 1   
    20    13    56 1   
    21    14    15 1   
    22    14    16 1   
    23    14    57 1   
    24    15    58 1   
    25    16    17 1   
    26    16    18 1   
    27    16    59 1   
    28    18    19 1   
    29    18    22 1   
    30    19    20 ar  
    31    19    23 ar  
    32    20    21 1   
    33    20    26 ar  
    34    21    22 2   
    35    22    60 1   
    36    23    24 ar  
    37    24    25 ar  
    38    24    61 1   
    39    25    26 ar  
    40    26    27 1   
    41    27    62 1   
    42    27    63 1   
    43    28    29 ar  
    44    28    33 ar  
    45    28    86 1   
    46    29    30 ar  
    47    29    67 1   
    48    30    31 ar  
    49    30    47 1   
    50    31    32 ar  
    51    31    44 1   
    52    32    33 ar  
    53    32    68 1   
    54    33    34 1   
    55    34    69 1   
    56    34    70 1   
    57    34    71 1   
    58    35    36 2   
    59    35    38 1   
    60    35    44 1   
    61    36    45 1   
    62    36    47 1   
    63    37    45 1   
    64    37    46 1   
    65    37    85 2   
    66    38    46 1   
    67    38    88 2   
    68    39    40 1   
    69    39    47 1   
    70    39    73 1   
    71    39    74 1   
    72    40    41 1   
    73    40    49 1   
    74    40    75 1   
    75    41    42 1   
    76    41    50 1   
    77    41    76 1   
    78    42    43 1   
    79    42    51 1   
    80    42    77 1   
    81    43    78 1   
    82    43    79 1   
    83    44    87 1   
    84    45    80 1   
    85    46    81 1   
    86    48    87 2   
    87    49    82 1   
    88    50    83 1   
    89    51    84 1   
    90    64    86 1   
    91    65    86 1   
    92    66    86 1   
    93    72    87 1   
@<TRIPOS>SUBSTRUCTURE
     1 HUF         1 TEMP              0 ****  ****    0 ROOT
