@<TRIPOS>MOLECULE
HUG
   62    66     1     0     0
SMALL
No Charge or Current Charge


@<TRIPOS>ATOM
      1 C4          -4.6260     1.2490    -0.9790 ca         1 HUG      -0.097500
      2 C7          -2.3100    -1.6910    -0.1690 cp         1 HUG      -0.166000
      3 C6          -3.4830    -0.7630    -0.1530 cp         1 HUG      -0.018000
      4 C9          -1.3940    -3.9750    -0.3570 ca         1 HUG      -0.202000
      5 C13          1.5400    -1.9370     0.1060 cc         1 HUG      -0.166400
      6 C20          5.6190     1.9520    -0.7430 c6         1 HUG      -0.017700
      7 C21          5.6540     2.7130    -2.1100 c          1 HUG       0.734000
      8 C8          -2.4880    -3.0940    -0.3420 ca         1 HUG       0.223000
      9 C18          7.0110     0.7770     1.0460 c6         1 HUG       0.166300
     10 C16          4.6290     0.1180     0.5250 c6         1 HUG       0.365300
     11 C19          7.0570     1.5320    -0.3200 c6         1 HUG       0.172300
     12 C26         -9.3080     2.0270    -0.4560 c6         1 HUG       0.159600
     13 C1          -4.5860    -0.9960     0.7020 ca         1 HUG      -0.087000
     14 C2          -5.6880    -0.1230     0.7190 ca         1 HUG      -0.097500
     15 C3          -5.7150     1.0070    -0.1220 ca         1 HUG      -0.078300
     16 C5          -3.5250     0.3760    -0.9940 ca         1 HUG      -0.087000
     17 C10         -0.1100    -3.4490    -0.1980 ca         1 HUG      -0.020200
     18 C11          0.1030    -2.1060    -0.0290 ca         1 HUG      -0.113800
     19 C12         -0.9830    -1.2010    -0.0100 ca         1 HUG       0.280000
     20 F1          -0.7800     0.1190     0.1840 f          1 HUG      -0.133000
     21 C14          2.1020    -3.2090     0.0070 cd         1 HUG      -0.096100
     22 N1           1.0750    -4.1600    -0.1840 na         1 HUG      -0.213700
     23 C15          2.3550    -0.7040     0.3030 c          1 HUG       0.641300
     24 O1           1.8950     0.4240     0.3940 o          1 HUG      -0.443000
     25 O2           3.6950    -0.9650     0.4120 os         1 HUG      -0.466100
     26 C17          6.0270    -0.4230     0.9650 c6         1 HUG       0.094300
     27 O3           4.7540     0.7700    -0.7550 os         1 HUG      -0.418000
     28 O4           5.3540     2.0630    -3.1060 o          1 HUG      -0.697500
     29 O5           5.3530     3.9000    -2.0600 o          1 HUG      -0.697500
     30 O6           7.9410     2.6620    -0.2230 oh         1 HUG      -0.764000
     31 O7           8.3210     0.3200     1.4210 oh         1 HUG      -0.642000
     32 O8           5.9780    -1.1380     2.2260 oh         1 HUG      -0.732000
     33 F2          -3.7260    -3.6090    -0.5180 f          1 HUG      -0.175000
     34 C22         -6.9100     1.9680    -0.1050 c6         1 HUG       0.215600
     35 C23         -7.0300     2.7430     1.2340 c6         1 HUG      -0.108400
     36 C24         -8.2960     3.6360     1.2370 c6         1 HUG      -0.074400
     37 C25         -9.5480     2.8050     0.8600 c6         1 HUG      -0.113400
     38 O9          -8.1210     1.2130    -0.3390 os         1 HUG      -0.451000
     39 H1          -4.6290     2.1160    -1.6370 ha         1 HUG       0.115500
     40 H2          -1.5490    -5.0420    -0.4940 ha         1 HUG       0.132000
     41 H4           6.6320     1.4720     1.8110 h1         1 HUG       0.041700
     42 H5           4.2690     0.8370     1.2770 h2         1 HUG       0.052700
     43 H6           7.4390     0.8360    -1.0820 h1         1 HUG       0.039700
     44 H7         -10.1680     1.3770    -0.6710 h1         1 HUG       0.040200
     45 H8          -9.1880     2.7260    -1.2980 h1         1 HUG       0.040200
     46 H9          -4.5820    -1.8580     1.3640 ha         1 HUG       0.119500
     47 H10         -6.5230    -0.3270     1.3860 ha         1 HUG       0.115500
     48 H11         -2.6960     0.5770    -1.6690 ha         1 HUG       0.119500
     49 H12          3.1490    -3.5010     0.0530 h4         1 HUG       0.233000
     50 H13          1.1860    -5.1630    -0.2900 hn         1 HUG       0.352000
     51 H14          6.3800    -1.1010     0.1720 h1         1 HUG       0.058700
     52 H16          8.7060     2.3360     0.3150 ho         1 HUG       0.572000
     53 H17          8.1510    -0.4010     2.0700 ho         1 HUG       0.432000
     54 H18          5.2340    -1.7830     2.1520 ho         1 HUG       0.501000
     55 H19         -6.7940     2.6920    -0.9260 h1         1 HUG       0.034700
     56 H20         -7.0750     2.0360     2.0730 hc         1 HUG       0.056700
     57 H21         -6.1350     3.3590     1.3900 hc         1 HUG       0.056700
     58 H22         -8.4310     4.0990     2.2240 hc         1 HUG       0.040700
     59 H23         -8.1690     4.4570     0.5180 hc         1 HUG       0.040700
     60 H24        -10.4200     3.4640     0.7530 hc         1 HUG       0.046200
     61 H25         -9.7840     2.0970     1.6660 hc         1 HUG       0.046200
     62 H3           5.2210     2.6540     0.0050 h1         1 HUG       0.036700
@<TRIPOS>BOND
     1     1    15 ar  
     2     1    16 ar  
     3     1    39 1   
     4     2     3 1   
     5     2     8 ar  
     6     2    19 ar  
     7     3    13 ar  
     8     3    16 ar  
     9     4     8 ar  
    10     4    17 ar  
    11     4    40 1   
    12     5    18 1   
    13     5    21 2   
    14     5    23 1   
    15     6     7 1   
    16     6    11 1   
    17     6    27 1   
    18     6    62 1   
    19     7    28 1   
    20     7    29 1   
    21     8    33 1   
    22     9    11 1   
    23     9    26 1   
    24     9    31 1   
    25     9    41 1   
    26    10    25 1   
    27    10    26 1   
    28    10    27 1   
    29    10    42 1   
    30    11    30 1   
    31    11    43 1   
    32    12    37 1   
    33    12    38 1   
    34    12    44 1   
    35    12    45 1   
    36    13    14 ar  
    37    13    46 1   
    38    14    15 ar  
    39    14    47 1   
    40    15    34 1   
    41    16    48 1   
    42    17    18 ar  
    43    17    22 1   
    44    18    19 ar  
    45    19    20 1   
    46    21    22 1   
    47    21    49 1   
    48    22    50 1   
    49    23    24 2   
    50    23    25 1   
    51    26    32 1   
    52    26    51 1   
    53    30    52 1   
    54    31    53 1   
    55    32    54 1   
    56    34    35 1   
    57    34    38 1   
    58    34    55 1   
    59    35    36 1   
    60    35    56 1   
    61    35    57 1   
    62    36    37 1   
    63    36    58 1   
    64    36    59 1   
    65    37    60 1   
    66    37    61 1   
@<TRIPOS>SUBSTRUCTURE
     1 HUG         1 TEMP              0 ****  ****    0 ROOT
