@<TRIPOS>MOLECULE
HUG
   62    66     1     0     0
SMALL
abcg2


@<TRIPOS>ATOM
      1 C4          -4.7880     0.9230    -1.2120 ca         1 HUG      -0.097500
      2 C7          -2.3190    -1.7840    -0.3320 cp         1 HUG      -0.166000
      3 C6          -3.5060    -0.9010    -0.2910 cp         1 HUG      -0.018000
      4 C9          -1.3780    -4.0290    -0.6000 ca         1 HUG      -0.202000
      5 C13          1.5180    -1.9010    -0.0940 cc         1 HUG      -0.166400
      6 C20          5.5020     1.9580    -0.5160 c6         1 HUG      -0.017700
      7 C21          5.6190     2.7440    -1.8360 c          1 HUG       0.734000
      8 C8          -2.4410    -3.1650    -0.5420 ca         1 HUG       0.223000
      9 C18          6.7140     0.7300     1.2910 c6         1 HUG       0.166300
     10 C16          4.4530     0.1460     0.4830 c6         1 HUG       0.365300
     11 C19          6.8860     1.5480     0.0220 c6         1 HUG       0.172300
     12 C26         -9.2010     1.8750     0.3220 c6         1 HUG       0.159600
     13 C1          -4.4650    -1.0350     0.7110 ca         1 HUG      -0.087000
     14 C2          -5.5680    -0.1950     0.7540 ca         1 HUG      -0.097500
     15 C3          -5.7410     0.7970    -0.2070 ca         1 HUG      -0.078300
     16 C5          -3.6820     0.0870    -1.2550 ca         1 HUG      -0.087000
     17 C10         -0.1210    -3.4550    -0.4350 ca         1 HUG      -0.020200
     18 C11          0.0920    -2.0790    -0.2170 ca         1 HUG      -0.113800
     19 C12         -1.0450    -1.2740    -0.1720 ca         1 HUG       0.280000
     20 F1          -0.9260     0.0370     0.0400 f          1 HUG      -0.133000
     21 C14          2.0740    -3.1510    -0.2450 cd         1 HUG      -0.096100
     22 N1           1.1030    -4.0610    -0.4460 na         1 HUG      -0.213700
     23 C15          2.2660    -0.6820     0.1530 c          1 HUG       0.641300
     24 O1           1.7960     0.4150     0.3130 o          1 HUG      -0.443000
     25 O2           3.5930    -0.9260     0.1950 os         1 HUG      -0.466100
     26 C17          5.7500    -0.4280     1.0420 c6         1 HUG       0.094300
     27 O3           4.6890     0.8220    -0.7100 os         1 HUG      -0.418000
     28 O4           4.8530     2.4690    -2.7610 o          1 HUG      -0.697500
     29 O5           6.5110     3.6330    -1.8300 o          1 HUG      -0.697500
     30 O6           7.6660     2.6750     0.3000 oh         1 HUG      -0.764000
     31 O7           7.9760     0.2750     1.7070 oh         1 HUG      -0.642000
     32 O8           5.5390    -1.0830     2.2680 oh         1 HUG      -0.732000
     33 F2          -3.6770    -3.6550    -0.7060 f          1 HUG      -0.175000
     34 C22         -6.8940     1.7600    -0.1410 c6         1 HUG       0.215600
     35 C23         -6.5910     2.9230     0.8060 c6         1 HUG      -0.108400
     36 C24         -7.7990     3.8450     0.9250 c6         1 HUG      -0.074400
     37 C25         -9.0350     3.0320     1.2920 c6         1 HUG      -0.113400
     38 O9          -8.0470     1.0580     0.2670 os         1 HUG      -0.451000
     39 H1          -4.9100     1.6820    -1.9760 ha         1 HUG       0.115500
     40 H2          -1.5150    -5.0880    -0.7690 ha         1 HUG       0.132000
     41 H4           6.2600     1.3850     2.0530 h1         1 HUG       0.041700
     42 H5           3.9950     0.8100     1.2310 h2         1 HUG       0.052700
     43 H6           7.3640     0.9030    -0.7370 h1         1 HUG       0.039700
     44 H7         -10.0270     1.2260     0.6190 h1         1 HUG       0.040200
     45 H8          -9.4330     2.2660    -0.6790 h1         1 HUG       0.040200
     46 H9          -4.3440    -1.7920     1.4760 ha         1 HUG       0.119500
     47 H10         -6.2930    -0.3160     1.5480 ha         1 HUG       0.115500
     48 H11         -2.9610     0.1960    -2.0550 ha         1 HUG       0.119500
     49 H12          3.1090    -3.4500    -0.2230 h4         1 HUG       0.233000
     50 H13          1.2620    -5.0480    -0.5780 hn         1 HUG       0.352000
     51 H14          6.1930    -1.1030     0.2940 h1         1 HUG       0.058700
     52 H16          7.4680     3.2780    -0.4540 ho         1 HUG       0.572000
     53 H17          7.8610    -0.2270     2.5210 ho         1 HUG       0.432000
     54 H18          5.1690    -1.9540     2.0960 ho         1 HUG       0.501000
     55 H19         -7.0550     2.1790    -1.1490 h1         1 HUG       0.034700
     56 H20         -6.3270     2.5220     1.7910 hc         1 HUG       0.056700
     57 H21         -5.7180     3.4650     0.4370 hc         1 HUG       0.056700
     58 H22         -7.6130     4.6240     1.6670 hc         1 HUG       0.040700
     59 H23         -7.9650     4.3540    -0.0300 hc         1 HUG       0.040700
     60 H24         -9.9350     3.6520     1.2660 hc         1 HUG       0.046200
     61 H25         -8.9410     2.6470     2.3110 hc         1 HUG       0.046200
     62 H3           5.0390     2.6300     0.2290 h1         1 HUG       0.036700
@<TRIPOS>BOND
     1     1    15 ar  
     2     1    16 ar  
     3     1    39 1   
     4     2     3 1   
     5     2     8 ar  
     6     2    19 ar  
     7     3    13 ar  
     8     3    16 ar  
     9     4     8 ar  
    10     4    17 ar  
    11     4    40 1   
    12     5    18 1   
    13     5    21 2   
    14     5    23 1   
    15     6     7 1   
    16     6    11 1   
    17     6    27 1   
    18     6    62 1   
    19     7    28 1   
    20     7    29 1   
    21     8    33 1   
    22     9    11 1   
    23     9    26 1   
    24     9    31 1   
    25     9    41 1   
    26    10    25 1   
    27    10    26 1   
    28    10    27 1   
    29    10    42 1   
    30    11    30 1   
    31    11    43 1   
    32    12    37 1   
    33    12    38 1   
    34    12    44 1   
    35    12    45 1   
    36    13    14 ar  
    37    13    46 1   
    38    14    15 ar  
    39    14    47 1   
    40    15    34 1   
    41    16    48 1   
    42    17    18 ar  
    43    17    22 1   
    44    18    19 ar  
    45    19    20 1   
    46    21    22 1   
    47    21    49 1   
    48    22    50 1   
    49    23    24 2   
    50    23    25 1   
    51    26    32 1   
    52    26    51 1   
    53    30    52 1   
    54    31    53 1   
    55    32    54 1   
    56    34    35 1   
    57    34    38 1   
    58    34    55 1   
    59    35    36 1   
    60    35    56 1   
    61    35    57 1   
    62    36    37 1   
    63    36    58 1   
    64    36    59 1   
    65    37    60 1   
    66    37    61 1   
@<TRIPOS>SUBSTRUCTURE
     1 HUG         1 TEMP              0 ****  ****    0 ROOT
