@<TRIPOS>MOLECULE
HUH
    8     8     1     0     0
SMALL
bcc


@<TRIPOS>ATOM
      1 C1           0.0360     1.1810     0.0560 cc         1 HUH      -0.248600
      2 C2          -1.0790     0.3840     0.0290 cd         1 HUH       0.258200
      3 N4           0.6140    -0.9420    -0.0330 nc         1 HUH      -0.201800
      4 N3          -0.6750    -0.9040    -0.0250 nd         1 HUH      -0.359000
      5 N5           1.0480     0.3020     0.0160 na         1 HUH      -0.010600
      6 H6           0.1800     2.2460     0.0980 h4         1 HUH       0.185000
      7 H7          -2.1180     0.6650     0.0450 h4         1 HUH       0.051100
      8 H1           2.0390     0.4920     0.0180 hn         1 HUH       0.325700
@<TRIPOS>BOND
     1     1     2 2   
     2     1     5 1   
     3     1     6 1   
     4     2     4 1   
     5     2     7 1   
     6     3     4 2   
     7     3     5 1   
     8     5     8 1   
@<TRIPOS>SUBSTRUCTURE
     1 HUH         1 TEMP              0 ****  ****    0 ROOT
