@<TRIPOS>MOLECULE
HUH
    8     8     1     0     0
SMALL
No Charge or Current Charge


@<TRIPOS>ATOM
      1 C1           0.0290     1.1930     0.0560 cc         1 HUH      -0.216000
      2 C2          -1.0810     0.3960     0.0290 cd         1 HUH       0.192900
      3 N4           0.6190    -0.9910    -0.0350 nc         1 HUH      -0.201800
      4 N3          -0.6850    -0.9260    -0.0260 nd         1 HUH      -0.359000
      5 N5           1.0700     0.2940     0.0150 na         1 HUH      -0.010200
      6 H6           0.1500     2.2680     0.0990 h4         1 HUH       0.167000
      7 H7          -2.1240     0.6880     0.0460 h4         1 HUH       0.051100
      8 H1           2.0660     0.5020     0.0190 hn         1 HUH       0.376000
@<TRIPOS>BOND
     1     1     2 2   
     2     1     5 1   
     3     1     6 1   
     4     2     4 1   
     5     2     7 1   
     6     3     4 2   
     7     3     5 1   
     8     5     8 1   
@<TRIPOS>SUBSTRUCTURE
     1 HUH         1 TEMP              0 ****  ****    0 ROOT
