@<TRIPOS>MOLECULE
HUI
   14    13     1     0     0
SMALL
abcg2


@<TRIPOS>ATOM
      1 O2           2.1360    -0.5490    -0.3660 o          1 HUI      -0.739000
      2 C1           1.1990     0.2190    -0.0660 c          1 HUI       0.720000
      3 O1           1.3140     1.3760     0.3870 o          1 HUI      -0.739000
      4 C2          -0.2290    -0.3320    -0.2810 c3         1 HUI      -0.196700
      5 C3          -0.4120    -1.6430     0.4830 c3         1 HUI      -0.056100
      6 C4          -1.2970     0.6860     0.0760 c3         1 HUI       0.171600
      7 O3          -2.5730     0.1590    -0.2470 oh         1 HUI      -0.689000
      8 H2          -0.3250    -0.5560    -1.3520 hc         1 HUI       0.035700
      9 H3          -0.3150    -1.4860     1.5600 hc         1 HUI       0.014033
     10 H4          -1.3930    -2.0830     0.3010 hc         1 HUI       0.014033
     11 H5           0.3400    -2.3720     0.1850 hc         1 HUI       0.014033
     12 H6          -1.2300     0.9280     1.1450 h1         1 HUI       0.020700
     13 H7          -1.1140     1.6180    -0.4720 h1         1 HUI       0.020700
     14 H8          -3.2320     0.8160    -0.0080 ho         1 HUI       0.409000
@<TRIPOS>BOND
     1     1     2 1   
     2     2     3 1   
     3     2     4 1   
     4     4     5 1   
     5     4     6 1   
     6     4     8 1   
     7     5     9 1   
     8     5    10 1   
     9     5    11 1   
    10     6     7 1   
    11     6    12 1   
    12     6    13 1   
    13     7    14 1   
@<TRIPOS>SUBSTRUCTURE
     1 HUI         1 TEMP              0 ****  ****    0 ROOT
