@<TRIPOS>MOLECULE
HUI
   14    13     1     0     0
SMALL
No Charge or Current Charge


@<TRIPOS>ATOM
      1 O2           1.9200     0.1710    -1.0820 o          1 HUI      -0.739000
      2 C1           1.1810     0.1940    -0.1090 c          1 HUI       0.720000
      3 O1           1.5060     0.6780     0.9660 o          1 HUI      -0.739000
      4 C2          -0.2260    -0.4160    -0.2520 c3         1 HUI      -0.196700
      5 C3          -0.4120    -1.6300     0.6940 c3         1 HUI      -0.056100
      6 C4          -1.2890     0.6840    -0.0440 c3         1 HUI       0.171600
      7 O3          -2.5850     0.2000    -0.4160 oh         1 HUI      -0.689000
      8 H2          -0.3230    -0.7840    -1.2810 hc         1 HUI       0.035700
      9 H3          -0.3720    -1.3200     1.7450 hc         1 HUI       0.014033
     10 H4          -1.3770    -2.1220     0.5180 hc         1 HUI       0.014033
     11 H5           0.3780    -2.3710     0.5240 hc         1 HUI       0.014033
     12 H6          -1.2870     1.0060     1.0060 h1         1 HUI       0.020700
     13 H7          -1.0270     1.5550    -0.6600 h1         1 HUI       0.020700
     14 H8          -3.2180     0.9360    -0.2610 ho         1 HUI       0.409000
@<TRIPOS>BOND
     1     1     2 1   
     2     2     3 1   
     3     2     4 1   
     4     4     5 1   
     5     4     6 1   
     6     4     8 1   
     7     5     9 1   
     8     5    10 1   
     9     5    11 1   
    10     6     7 1   
    11     6    12 1   
    12     6    13 1   
    13     7    14 1   
@<TRIPOS>SUBSTRUCTURE
     1 HUI         1 TEMP              0 ****  ****    0 ROOT
