@<TRIPOS>MOLECULE
HUK
   74    76     1     0     0
SMALL
No Charge or Current Charge


@<TRIPOS>ATOM
      1 C10        133.6730   109.5760    38.7610 c3         1 HUK       0.068900
      2 C12        133.0810   110.8020    41.5610 c3         1 HUK      -0.106400
      3 C13        132.9510   111.8190    42.7280 c3         1 HUK      -0.048700
      4 C14        133.2370   113.2680    42.2460 c3         1 HUK      -0.070400
      5 C15        133.0890   114.4000    43.2910 c3         1 HUK      -0.065900
      6 C16        131.6250   114.7000    43.6800 c3         1 HUK      -0.075400
      7 C17        131.0340   113.8140    44.7990 c3         1 HUK      -0.075400
      8 C20        136.6120   111.6570    38.4870 c3         1 HUK      -0.003200
      9 C22        138.0970   111.7170    40.6180 cc         1 HUK      -0.153100
     10 C24        137.3610   113.7060    41.4800 ca         1 HUK      -0.038200
     11 C28        136.2400   115.8110    41.8210 ca         1 HUK      -0.067000
     12 C26        135.7520   114.4550    39.8340 ca         1 HUK      -0.097000
     13 C25        136.6770   113.5180    40.3140 ca         1 HUK      -0.107800
     14 C18        131.4750   112.3320    44.8170 c3         1 HUK      -0.065900
     15 C01        134.2540   105.5530    36.8640 c3         1 HUK      -0.099100
     16 C02        135.1460   106.0360    35.6990 c3         1 HUK      -0.078400
     17 C04        136.1650   108.0660    36.9170 c3         1 HUK       0.091600
     18 C06        137.1210   110.1440    35.8250 c3         1 HUK       0.084900
     19 C07        136.7530   110.1170    38.3620 c3         1 HUK       0.111300
     20 C08        136.1410   109.3580    39.5830 c3         1 HUK       0.082600
     21 C11        134.4590   110.7970    40.8690 c3         1 HUK       0.106600
     22 C19        131.5780   111.6390    43.4390 c3         1 HUK      -0.070400
     23 C21        137.1280   112.2560    39.7760 cd         1 HUK      -0.228400
     24 C27        135.5360   115.6170    40.6060 ca         1 HUK      -0.096000
     25 C29        137.1680   114.8460    42.2710 ca         1 HUK      -0.102000
     26 N05        136.2660   109.5960    36.9880 nx         1 HUK      -0.695000
     27 N09        134.6530   109.5900    39.9450 nx         1 HUK      -0.679000
     28 N23        138.2130   112.6360    41.6830 na         1 HUK      -0.198700
     29 H1         132.6460   109.5530    39.1360 hx         1 HUK       0.100033
     30 H2         133.8050   110.4810    38.1660 hx         1 HUK       0.100033
     31 H3         133.8420   108.6900    38.1440 hx         1 HUK       0.100033
     32 H4         132.3030   111.0030    40.8150 hc         1 HUK       0.061200
     33 H5         132.8930   109.7950    41.9510 hc         1 HUK       0.061200
     34 H6         133.7300   111.5620    43.4580 hc         1 HUK       0.050700
     35 H7         134.2690   113.3050    41.8840 hc         1 HUK       0.037200
     36 H8         132.6020   113.4960    41.3800 hc         1 HUK       0.037200
     37 H9         133.6890   114.1800    44.1820 hc         1 HUK       0.047700
     38 H10        133.5120   115.3120    42.8540 hc         1 HUK       0.047700
     39 H11        130.9930   114.6220    42.7860 hc         1 HUK       0.050950
     40 H12        131.5540   115.7460    44.0030 hc         1 HUK       0.050950
     41 H13        131.2910   114.2550    45.7710 hc         1 HUK       0.050950
     42 H14        129.9400   113.8580    44.7280 hc         1 HUK       0.050950
     43 H16        135.5560   111.9170    38.3520 hc         1 HUK       0.071700
     44 H17        138.6890   110.8080    40.5570 h4         1 HUK       0.207000
     45 H18        136.0650   116.7100    42.4090 ha         1 HUK       0.143000
     46 H19        135.2180   114.2970    38.9000 ha         1 HUK       0.106000
     47 H20        130.7550   111.7780    45.4330 hc         1 HUK       0.047700
     48 H21        132.4360   112.2460    45.3380 hc         1 HUK       0.047700
     49 H22        134.0660   104.4760    36.7770 hc         1 HUK       0.044700
     50 H23        134.7330   105.7340    37.8330 hc         1 HUK       0.044700
     51 H24        133.2860   106.0700    36.8530 hc         1 HUK       0.044700
     52 H25        136.1100   105.5130    35.7380 hc         1 HUK       0.079200
     53 H26        134.6730   105.7460    34.7510 hc         1 HUK       0.079200
     54 H27        135.9380   107.8200    34.7750 hc         1 HUK       0.061200
     55 H28        134.4200   108.0780    35.6310 hc         1 HUK       0.061200
     56 H29        135.6490   107.7060    37.8090 hx         1 HUK       0.098200
     57 H30        137.1730   107.6430    36.9140 hx         1 HUK       0.098200
     58 H31        137.1070   111.2360    35.8230 hx         1 HUK       0.109367
     59 H32        138.1520   109.7980    35.9340 hx         1 HUK       0.109367
     60 H33        136.7260   109.7890    34.8700 hx         1 HUK       0.109367
     61 H34        137.8260   109.9050    38.3960 hx         1 HUK       0.124700
     62 H35        136.2920   108.2890    39.4190 hx         1 HUK       0.116200
     63 H36        136.7310   109.6150    40.4650 hx         1 HUK       0.116200
     64 H37        135.2370   110.7730    41.6370 hx         1 HUK       0.108700
     65 H38        134.5890   111.7180    40.2950 hx         1 HUK       0.108700
     66 H39        130.7630   111.9730    42.7840 hc         1 HUK       0.037200
     67 H40        131.4150   110.5670    43.6050 hc         1 HUK       0.037200
     68 H41        134.8240   116.3670    40.2670 ha         1 HUK       0.137000
     69 H42        137.7170   114.9880    43.2000 ha         1 HUK       0.142000
     70 H43        135.3040   109.9710    36.8420 hn         1 HUK       0.481000
     71 H44        134.3900   108.7640    40.5360 hn         1 HUK       0.507000
     72 H45        138.8420   112.5400    42.4750 hn         1 HUK       0.378000
     73 H15        137.1450   112.1360    37.6600 hc         1 HUK       0.071700
     74 C03        135.3860   107.5620    35.6860 c3         1 HUK      -0.100400
@<TRIPOS>BOND
     1     1    27 1   
     2     1    29 1   
     3     1    30 1   
     4     1    31 1   
     5     2     3 1   
     6     2    21 1   
     7     2    32 1   
     8     2    33 1   
     9     3     4 1   
    10     3    22 1   
    11     3    34 1   
    12     4     5 1   
    13     4    35 1   
    14     4    36 1   
    15     5     6 1   
    16     5    37 1   
    17     5    38 1   
    18     6     7 1   
    19     6    39 1   
    20     6    40 1   
    21     7    14 1   
    22     7    41 1   
    23     7    42 1   
    24     8    19 1   
    25     8    23 1   
    26     8    43 1   
    27     8    73 1   
    28     9    23 2   
    29     9    28 1   
    30     9    44 1   
    31    10    13 ar  
    32    10    25 ar  
    33    10    28 1   
    34    11    24 ar  
    35    11    25 ar  
    36    11    45 1   
    37    12    13 ar  
    38    12    24 ar  
    39    12    46 1   
    40    13    23 1   
    41    14    22 1   
    42    14    47 1   
    43    14    48 1   
    44    15    16 1   
    45    15    49 1   
    46    15    50 1   
    47    15    51 1   
    48    16    52 1   
    49    16    53 1   
    50    16    74 1   
    51    17    26 1   
    52    17    56 1   
    53    17    57 1   
    54    17    74 1   
    55    18    26 1   
    56    18    58 1   
    57    18    59 1   
    58    18    60 1   
    59    19    20 1   
    60    19    26 1   
    61    19    61 1   
    62    20    27 1   
    63    20    62 1   
    64    20    63 1   
    65    21    27 1   
    66    21    64 1   
    67    21    65 1   
    68    22    66 1   
    69    22    67 1   
    70    24    68 1   
    71    25    69 1   
    72    26    70 1   
    73    27    71 1   
    74    28    72 1   
    75    54    74 1   
    76    55    74 1   
@<TRIPOS>SUBSTRUCTURE
     1 HUK         1 TEMP              0 ****  ****    0 ROOT
