@<TRIPOS>MOLECULE
HUK
   74    76     1     0     0
SMALL
abcg2


@<TRIPOS>ATOM
      1 C10        133.3020   109.7620    38.7080 c3         1 HUK       0.068900
      2 C12        132.8240   111.0260    41.4450 c3         1 HUK      -0.106400
      3 C13        132.8520   111.9340    42.6840 c3         1 HUK      -0.048700
      4 C14        133.3060   113.3520    42.3190 c3         1 HUK      -0.070400
      5 C15        133.2870   114.3910    43.4450 c3         1 HUK      -0.065900
      6 C16        131.8790   114.8170    43.8750 c3         1 HUK      -0.075400
      7 C17        131.2140   113.9300    44.9370 c3         1 HUK      -0.075400
      8 C20        136.5260   111.5580    38.4600 c3         1 HUK      -0.003200
      9 C22        137.8550   111.5200    40.6910 cc         1 HUK      -0.153100
     10 C24        137.3460   113.5410    41.5260 ca         1 HUK      -0.038200
     11 C28        136.4340   115.7180    41.8030 ca         1 HUK      -0.067000
     12 C26        135.8830   114.4480    39.8060 ca         1 HUK      -0.097000
     13 C25        136.6810   113.3970    40.2790 ca         1 HUK      -0.107800
     14 C18        131.4880   112.4250    44.8140 c3         1 HUK      -0.065900
     15 C01        135.1730   105.1650    36.8860 c3         1 HUK      -0.099100
     16 C02        135.6820   105.9240    35.6610 c3         1 HUK      -0.078400
     17 C04        136.3990   108.0840    36.7530 c3         1 HUK       0.091600
     18 C06        136.6870   110.3610    35.8740 c3         1 HUK       0.084900
     19 C07        136.4660   110.0290    38.3840 c3         1 HUK       0.111300
     20 C08        135.6780   109.3130    39.4870 c3         1 HUK       0.082600
     21 C11        134.1680   110.9550    40.7360 c3         1 HUK       0.106600
     22 C19        131.4880   111.8620    43.3880 c3         1 HUK      -0.070400
     23 C21        137.0130   112.0940    39.7720 cd         1 HUK      -0.228400
     24 C27        135.7680   115.5960    40.5700 ca         1 HUK      -0.096000
     25 C29        137.2270   114.6960    42.2990 ca         1 HUK      -0.102000
     26 N05        136.0700   109.5490    36.9780 nx         1 HUK      -0.695000
     27 N09        134.2650   109.7270    39.8520 nx         1 HUK      -0.679000
     28 N23        138.0510   112.3830    41.7460 na         1 HUK      -0.198700
     29 H1         132.2960   109.8230    39.1090 hx         1 HUK       0.100033
     30 H2         133.4990   110.6410    38.1010 hx         1 HUK       0.100033
     31 H3         133.4050   108.8420    38.1370 hx         1 HUK       0.100033
     32 H4         132.0520   111.3790    40.7580 hc         1 HUK       0.061200
     33 H5         132.5360   110.0200    41.7660 hc         1 HUK       0.061200
     34 H6         133.5930   111.5150    43.3770 hc         1 HUK       0.050700
     35 H7         134.3220   113.3020    41.9220 hc         1 HUK       0.037200
     36 H8         132.6770   113.7220    41.5000 hc         1 HUK       0.037200
     37 H9         133.8550   114.0220    44.3060 hc         1 HUK       0.047700
     38 H10        133.8270   115.2690    43.0820 hc         1 HUK       0.047700
     39 H11        131.2480   114.8520    42.9800 hc         1 HUK       0.050950
     40 H12        131.9080   115.8410    44.2570 hc         1 HUK       0.050950
     41 H13        131.5400   114.2540    45.9310 hc         1 HUK       0.050950
     42 H14        130.1340   114.1030    44.9020 hc         1 HUK       0.050950
     43 H16        135.5480   111.9850    38.2280 hc         1 HUK       0.071700
     44 H17        138.3350   110.5550    40.6880 h4         1 HUK       0.207000
     45 H18        136.3180   116.6270    42.3810 ha         1 HUK       0.143000
     46 H19        135.3610   114.3610    38.8610 ha         1 HUK       0.106000
     47 H20        130.7410   111.8960    45.4110 hc         1 HUK       0.047700
     48 H21        132.4540   112.1910    45.2720 hc         1 HUK       0.047700
     49 H22        135.3070   104.0900    36.7560 hc         1 HUK       0.044700
     50 H23        135.7020   105.4520    37.7970 hc         1 HUK       0.044700
     51 H24        134.1090   105.3550    37.0440 hc         1 HUK       0.044700
     52 H25        136.7450   105.7150    35.5070 hc         1 HUK       0.079200
     53 H26        135.1660   105.5580    34.7710 hc         1 HUK       0.079200
     54 H27        135.6290   107.8770    34.7500 hc         1 HUK       0.061200
     55 H28        134.4320   107.6470    36.0200 hc         1 HUK       0.061200
     56 H29        136.3280   107.5750    37.7060 hx         1 HUK       0.098200
     57 H30        137.4400   108.0560    36.4370 hx         1 HUK       0.098200
     58 H31        136.2400   111.3480    35.8560 hx         1 HUK       0.109367
     59 H32        137.7580   110.4140    36.0470 hx         1 HUK       0.109367
     60 H33        136.4830   109.8520    34.9380 hx         1 HUK       0.109367
     61 H34        137.4820   109.6430    38.4990 hx         1 HUK       0.124700
     62 H35        135.6030   108.2510    39.2770 hx         1 HUK       0.116200
     63 H36        136.2470   109.4140    40.4060 hx         1 HUK       0.116200
     64 H37        134.9820   110.8720    41.4520 hx         1 HUK       0.108700
     65 H38        134.3430   111.8200    40.1060 hx         1 HUK       0.108700
     66 H39        130.7310   112.3650    42.7770 hc         1 HUK       0.037200
     67 H40        131.1940   110.8090    43.4300 hc         1 HUK       0.037200
     68 H41        135.1490   116.4130    40.2210 ha         1 HUK       0.137000
     69 H42        137.7360   114.7870    43.2500 ha         1 HUK       0.142000
     70 H43        135.0610   109.6570    36.8740 hn         1 HUK       0.481000
     71 H44        133.9590   108.9530    40.4470 hn         1 HUK       0.507000
     72 H45        138.6170   112.1860    42.5540 hn         1 HUK       0.378000
     73 H15        137.1940   111.9120    37.6760 hc         1 HUK       0.071700
     74 C03        135.4700   107.4410    35.7370 c3         1 HUK      -0.100400
@<TRIPOS>BOND
     1     1    27 1   
     2     1    29 1   
     3     1    30 1   
     4     1    31 1   
     5     2     3 1   
     6     2    21 1   
     7     2    32 1   
     8     2    33 1   
     9     3     4 1   
    10     3    22 1   
    11     3    34 1   
    12     4     5 1   
    13     4    35 1   
    14     4    36 1   
    15     5     6 1   
    16     5    37 1   
    17     5    38 1   
    18     6     7 1   
    19     6    39 1   
    20     6    40 1   
    21     7    14 1   
    22     7    41 1   
    23     7    42 1   
    24     8    19 1   
    25     8    23 1   
    26     8    43 1   
    27     8    73 1   
    28     9    23 2   
    29     9    28 1   
    30     9    44 1   
    31    10    13 ar  
    32    10    25 ar  
    33    10    28 1   
    34    11    24 ar  
    35    11    25 ar  
    36    11    45 1   
    37    12    13 ar  
    38    12    24 ar  
    39    12    46 1   
    40    13    23 1   
    41    14    22 1   
    42    14    47 1   
    43    14    48 1   
    44    15    16 1   
    45    15    49 1   
    46    15    50 1   
    47    15    51 1   
    48    16    52 1   
    49    16    53 1   
    50    16    74 1   
    51    17    26 1   
    52    17    56 1   
    53    17    57 1   
    54    17    74 1   
    55    18    26 1   
    56    18    58 1   
    57    18    59 1   
    58    18    60 1   
    59    19    20 1   
    60    19    26 1   
    61    19    61 1   
    62    20    27 1   
    63    20    62 1   
    64    20    63 1   
    65    21    27 1   
    66    21    64 1   
    67    21    65 1   
    68    22    66 1   
    69    22    67 1   
    70    24    68 1   
    71    25    69 1   
    72    26    70 1   
    73    27    71 1   
    74    28    72 1   
    75    54    74 1   
    76    55    74 1   
@<TRIPOS>SUBSTRUCTURE
     1 HUK         1 TEMP              0 ****  ****    0 ROOT
