@<TRIPOS>MOLECULE
HUL
   34    36     1     0     0
SMALL
abcg2


@<TRIPOS>ATOM
      1 C1          -3.6020    -0.3550    -0.1470 ca         1 HUL      -0.030900
      2 C2          -2.8410     0.8050    -0.1500 ca         1 HUL       0.262100
      3 C3          -1.4310     0.7260    -0.0930 ca         1 HUL      -0.371600
      4 C4          -0.8380    -0.5340    -0.0320 ca         1 HUL       0.240100
      5 C5          -1.5760    -1.7010    -0.0220 ca         1 HUL      -0.294000
      6 C6          -2.9630    -1.6030    -0.0740 ca         1 HUL       0.223100
      7 C7          -5.6140    -0.1680     1.0250 c3         1 HUL       0.143900
      8 C8          -0.6050     1.9130    -0.1100 c          1 HUL       0.615900
      9 C9           0.8110     1.6740    -0.0730 cc         1 HUL      -0.389200
     10 C10          1.3080     0.4160    -0.0010 cd         1 HUL       0.231900
     11 C11          2.7250     0.0610     0.0410 ca         1 HUL      -0.123800
     12 C12          3.6860     1.0110     0.3930 ca         1 HUL      -0.027000
     13 C13          5.0300     0.6940     0.4160 ca         1 HUL      -0.187500
     14 C14          5.4490    -0.5940     0.0840 ca         1 HUL       0.170100
     15 C15          4.5000    -1.5560    -0.2610 ca         1 HUL      -0.187500
     16 O21         -4.9550    -0.2880    -0.2310 os         1 HUL      -0.319100
     17 O19         -3.4560     1.9810    -0.2160 oh         1 HUL      -0.522100
     18 O20         -3.7580    -2.6750    -0.0680 oh         1 HUL      -0.501100
     19 O17          0.5060    -0.6560     0.0250 os         1 HUL      -0.217200
     20 O18         -1.0970     3.0530    -0.1640 o          1 HUL      -0.599100
     21 O22          6.7380    -0.9590     0.0840 oh         1 HUL      -0.524100
     22 C16          3.1580    -1.2310    -0.2770 ca         1 HUL      -0.027000
     23 H1          -1.0830    -2.6640     0.0300 ha         1 HUL       0.137000
     24 H2          -5.4270    -1.0340     1.6650 h1         1 HUL       0.035367
     25 H3          -5.3090     0.7360     1.5560 h1         1 HUL       0.035367
     26 H4          -6.6820    -0.1100     0.8210 h1         1 HUL       0.035367
     27 H5           1.4810     2.5190    -0.1250 ha         1 HUL       0.216000
     28 H6           3.3920     2.0130     0.6760 ha         1 HUL       0.126500
     29 H7           5.7530     1.4500     0.7000 ha         1 HUL       0.128500
     30 H8           4.8190    -2.5570    -0.5200 ha         1 HUL       0.128500
     31 H9          -2.7530     2.6760    -0.2110 ho         1 HUL       0.522000
     32 H10         -3.2360    -3.4850    -0.0230 ho         1 HUL       0.470000
     33 H11          7.3040    -0.2170     0.3300 ho         1 HUL       0.472000
     34 H12          2.4490    -1.9980    -0.5570 ha         1 HUL       0.126500
@<TRIPOS>BOND
     1     1     2 ar  
     2     1     6 ar  
     3     1    16 1   
     4     2     3 ar  
     5     2    17 1   
     6     3     4 ar  
     7     3     8 1   
     8     4     5 ar  
     9     4    19 1   
    10     5     6 ar  
    11     5    23 1   
    12     6    18 1   
    13     7    16 1   
    14     7    24 1   
    15     7    25 1   
    16     7    26 1   
    17     8     9 1   
    18     8    20 2   
    19     9    10 2   
    20     9    27 1   
    21    10    11 1   
    22    10    19 1   
    23    11    12 ar  
    24    11    22 ar  
    25    12    13 ar  
    26    12    28 1   
    27    13    14 ar  
    28    13    29 1   
    29    14    15 ar  
    30    14    21 1   
    31    15    22 ar  
    32    15    30 1   
    33    17    31 1   
    34    18    32 1   
    35    21    33 1   
    36    22    34 1   
@<TRIPOS>SUBSTRUCTURE
     1 HUL         1 TEMP              0 ****  ****    0 ROOT
