@<TRIPOS>MOLECULE
HUL
   34    36     1     0     0
SMALL
No Charge or Current Charge


@<TRIPOS>ATOM
      1 C1          -3.6540    -0.6260     0.1540 ca         1 HUL      -0.030900
      2 C2          -2.8980     0.5690     0.3680 ca         1 HUL       0.262100
      3 C3          -1.4860     0.5380     0.3110 ca         1 HUL      -0.371600
      4 C4          -0.8290    -0.6680     0.0450 ca         1 HUL       0.240100
      5 C5          -1.5560    -1.8400    -0.1650 ca         1 HUL      -0.294000
      6 C6          -2.9520    -1.8230    -0.1120 ca         1 HUL       0.223100
      7 C7          -5.9460     0.3860     0.4400 c3         1 HUL       0.143900
      8 C8          -0.6460     1.7520     0.5260 c          1 HUL       0.615900
      9 C9           0.7910     1.5610     0.4360 cc         1 HUL      -0.389200
     10 C10          1.3640     0.3390     0.1690 cd         1 HUL       0.231900
     11 C11          2.8130     0.0380     0.0570 ca         1 HUL      -0.123800
     12 C12          3.7870     1.0510     0.2260 ca         1 HUL      -0.027000
     13 C13          5.1580     0.7560     0.1180 ca         1 HUL      -0.187500
     14 C14          5.5780    -0.5510    -0.1600 ca         1 HUL       0.170100
     15 C15          4.6290    -1.5650    -0.3310 ca         1 HUL      -0.187500
     16 O21         -5.0500    -0.7120     0.1870 os         1 HUL      -0.319100
     17 O19         -3.4950     1.7650     0.6300 oh         1 HUL      -0.522100
     18 O20         -3.6270    -2.9930    -0.3230 oh         1 HUL      -0.501100
     19 O17          0.5390    -0.7360    -0.0180 os         1 HUL      -0.217200
     20 O18         -1.1400     2.8460     0.7640 o          1 HUL      -0.599100
     21 O22          6.9040    -0.8430    -0.2660 oh         1 HUL      -0.524100
     22 C16          3.2570    -1.2770    -0.2240 ca         1 HUL      -0.027000
     23 H1          -1.0210    -2.7630    -0.3700 ha         1 HUL       0.137000
     24 H2          -5.7690     0.8160     1.4340 h1         1 HUL       0.035367
     25 H3          -5.8320     1.1690    -0.3200 h1         1 HUL       0.035367
     26 H4          -6.9860     0.0380     0.4070 h1         1 HUL       0.035367
     27 H5           1.3700     2.4590     0.5960 ha         1 HUL       0.216000
     28 H6           3.4980     2.0750     0.4430 ha         1 HUL       0.126500
     29 H7           5.8860     1.5530     0.2530 ha         1 HUL       0.128500
     30 H8           4.9550    -2.5790    -0.5470 ha         1 HUL       0.128500
     31 H9          -2.7540     2.4160     0.7350 ho         1 HUL       0.522000
     32 H10         -2.9690    -3.6980    -0.4890 ho         1 HUL       0.470000
     33 H11          7.4150    -0.0190    -0.1190 ho         1 HUL       0.472000
     34 H12          2.5470    -2.0900    -0.3620 ha         1 HUL       0.126500
@<TRIPOS>BOND
     1     1     2 ar  
     2     1     6 ar  
     3     1    16 1   
     4     2     3 ar  
     5     2    17 1   
     6     3     4 ar  
     7     3     8 1   
     8     4     5 ar  
     9     4    19 1   
    10     5     6 ar  
    11     5    23 1   
    12     6    18 1   
    13     7    16 1   
    14     7    24 1   
    15     7    25 1   
    16     7    26 1   
    17     8     9 1   
    18     8    20 2   
    19     9    10 2   
    20     9    27 1   
    21    10    11 1   
    22    10    19 1   
    23    11    12 ar  
    24    11    22 ar  
    25    12    13 ar  
    26    12    28 1   
    27    13    14 ar  
    28    13    29 1   
    29    14    15 ar  
    30    14    21 1   
    31    15    22 ar  
    32    15    30 1   
    33    17    31 1   
    34    18    32 1   
    35    21    33 1   
    36    22    34 1   
@<TRIPOS>SUBSTRUCTURE
     1 HUL         1 TEMP              0 ****  ****    0 ROOT
