@<TRIPOS>MOLECULE
HUM
   59    61     1     0     0
SMALL
abcg2


@<TRIPOS>ATOM
      1 C10          1.4700     0.8760    -0.9170 c          1 HUM       0.555200
      2 C12         -2.1520     0.5050     0.1770 ca         1 HUM      -0.151800
      3 C13         -3.0510     1.3200     0.8590 ca         1 HUM       0.228000
      4 C15         -4.4140     1.1420     0.8180 ca         1 HUM      -0.199000
      5 C16         -4.9380     0.0900     0.0630 ca         1 HUM       0.184100
      6 C01          6.1480     0.2730     1.7480 c3         1 HUM      -0.094100
      7 C02          5.6700    -0.3130     0.4200 c3         1 HUM      -0.311000
      8 C03          4.1430    -0.2550     0.2800 c3         1 HUM      -0.078400
      9 C06          1.3200     0.9850     1.4830 cc         1 HUM      -0.037400
     10 C07         -0.0270     0.8510     1.4800 cd         1 HUM      -0.275000
     11 C08         -0.6940     0.7130     0.2340 cd         1 HUM       0.090800
     12 C09          0.0420     0.7320    -0.9150 cc         1 HUM      -0.314200
     13 C18         -6.8700    -1.1100    -0.6390 c3         1 HUM       0.211900
     14 C19         -8.3500    -1.0230    -0.4240 ca         1 HUM      -0.101300
     15 C20         -8.9160    -1.4910     0.7590 ca         1 HUM      -0.082500
     16 C21        -10.2830    -1.3910     0.9720 ca         1 HUM      -0.114500
     17 C22        -11.0990    -0.8210     0.0020 ca         1 HUM      -0.095000
     18 C23        -10.5430    -0.3530    -1.1800 ca         1 HUM      -0.114500
     19 C24         -9.1730    -0.4520    -1.3890 ca         1 HUM      -0.082500
     20 C25         -4.0730    -0.7470    -0.6400 ca         1 HUM      -0.224000
     21 C26         -2.7060    -0.5250    -0.5770 ca         1 HUM      -0.026000
     22 C27          6.0950    -1.7680     0.1650 c          1 HUM       0.622100
     23 F14         -2.5740     2.3490     1.5740 f          1 HUM      -0.171000
     24 N05          2.0500     1.0070     0.3400 n          1 HUM      -0.272000
     25 N29          6.8700    -2.3160     1.1050 ns         1 HUM      -0.362400
     26 O11          2.1670     0.8940    -1.9310 o          1 HUM      -0.576000
     27 O17         -6.2730    -0.0300     0.0750 os         1 HUM      -0.335100
     28 O28          5.7390    -2.3570    -0.8400 o          1 HUM      -0.579100
     29 O30          7.1880    -3.6350     1.0260 oh         1 HUM      -0.417100
     30 S31          6.5330     0.6610    -0.8880 s6         1 HUM       1.059000
     31 H1          -5.0700     1.8120     1.3580 ha         1 HUM       0.149000
     32 H2           5.8500     1.3130     1.8560 hc         1 HUM       0.060033
     33 H3           5.6920    -0.2770     2.5720 hc         1 HUM       0.060033
     34 H4           7.2310     0.2400     1.8600 hc         1 HUM       0.060033
     35 H5           3.8430    -0.7030    -0.6660 hc         1 HUM       0.076200
     36 H6           3.7430    -0.8990     1.0690 hc         1 HUM       0.076200
     37 H7           3.7410     1.5740     1.3830 h1         1 HUM       0.075200
     38 H8           3.8330     1.8180    -0.3470 h1         1 HUM       0.075200
     39 H9           1.8800     1.0800     2.4020 h4         1 HUM       0.199000
     40 H10         -0.5570     0.8180     2.4200 ha         1 HUM       0.207000
     41 H11         -0.4350     0.6420    -1.8820 ha         1 HUM       0.212000
     42 H12         -6.4810    -2.0630    -0.2690 h1         1 HUM       0.044700
     43 H13         -6.6300    -1.0390    -1.7040 h1         1 HUM       0.044700
     44 H14         -8.2870    -1.9440     1.5160 ha         1 HUM       0.115000
     45 H15        -10.7130    -1.7620     1.8930 ha         1 HUM       0.116000
     46 H16        -12.1670    -0.7470     0.1670 ha         1 HUM       0.115000
     47 H17        -11.1730     0.0880    -1.9420 ha         1 HUM       0.116000
     48 H18         -8.7420    -0.0840    -2.3120 ha         1 HUM       0.115000
     49 H19         -4.4370    -1.5760    -1.2300 ha         1 HUM       0.125000
     50 H20         -2.0450    -1.1900    -1.1180 ha         1 HUM       0.123000
     51 H21          4.6720     0.6470    -2.3780 h1         1 HUM       0.120700
     52 H22          6.2340     0.9730    -3.1670 h1         1 HUM       0.120700
     53 H23          5.8050    -0.6970    -2.7060 h1         1 HUM       0.120700
     54 H24          7.1030    -1.8770     1.9830 hn         1 HUM       0.350500
     55 H25          8.0360    -3.6830     0.5620 ho         1 HUM       0.453000
     56 C04          3.5020     1.1240     0.4210 c3         1 HUM       0.082000
     57 C32          5.7160     0.3500    -2.4370 c3         1 HUM      -0.314100
     58 O33          6.3580     2.0810    -0.5760 o          1 HUM      -0.516500
     59 O34          7.9000     0.1430    -0.9530 o          1 HUM      -0.516500
@<TRIPOS>BOND
     1     1    12 1   
     2     1    24 1   
     3     1    26 2   
     4     2     3 ar  
     5     2    11 1   
     6     2    21 ar  
     7     3     4 ar  
     8     3    23 1   
     9     4     5 ar  
    10     4    31 1   
    11     5    20 ar  
    12     5    27 1   
    13     6     7 1   
    14     6    32 1   
    15     6    33 1   
    16     6    34 1   
    17     7     8 1   
    18     7    22 1   
    19     7    30 1   
    20     8    35 1   
    21     8    36 1   
    22     8    56 1   
    23     9    10 2   
    24     9    24 1   
    25     9    39 1   
    26    10    11 1   
    27    10    40 1   
    28    11    12 2   
    29    12    41 1   
    30    13    14 1   
    31    13    27 1   
    32    13    42 1   
    33    13    43 1   
    34    14    15 ar  
    35    14    19 ar  
    36    15    16 ar  
    37    15    44 1   
    38    16    17 ar  
    39    16    45 1   
    40    17    18 ar  
    41    17    46 1   
    42    18    19 ar  
    43    18    47 1   
    44    19    48 1   
    45    20    21 ar  
    46    20    49 1   
    47    21    50 1   
    48    22    25 1   
    49    22    28 2   
    50    24    56 1   
    51    25    29 1   
    52    25    54 1   
    53    29    55 1   
    54    30    57 1   
    55    30    58 2   
    56    30    59 2   
    57    37    56 1   
    58    38    56 1   
    59    51    57 1   
    60    52    57 1   
    61    53    57 1   
@<TRIPOS>SUBSTRUCTURE
     1 HUM         1 TEMP              0 ****  ****    0 ROOT
