@<TRIPOS>MOLECULE
HUM
   59    61     1     0     0
SMALL
No Charge or Current Charge


@<TRIPOS>ATOM
      1 C10          1.4280     0.8650    -1.0560 c          1 HUM       0.555200
      2 C12         -2.2300     0.4750     0.2010 ca         1 HUM      -0.151800
      3 C13         -3.0690     0.9320     1.2500 ca         1 HUM       0.228000
      4 C15         -4.4530     0.7090     1.2200 ca         1 HUM      -0.199000
      5 C16         -5.0420     0.0300     0.1500 ca         1 HUM       0.184100
      6 C01          6.3650     0.6940     1.5780 c3         1 HUM      -0.094100
      7 C02          5.8870    -0.2070     0.3810 c3         1 HUM      -0.311000
      8 C03          4.3100    -0.2450     0.3470 c3         1 HUM      -0.078400
      9 C06          1.3950     0.8510     1.3810 cc         1 HUM      -0.037400
     10 C07          0.0230     0.7170     1.4220 cd         1 HUM      -0.275000
     11 C08         -0.7580     0.6880     0.2070 cd         1 HUM       0.090800
     12 C09         -0.0270     0.7210    -0.9670 cc         1 HUM      -0.314200
     13 C18         -7.1080    -0.8420    -0.8740 c3         1 HUM       0.211900
     14 C19         -8.5900    -0.8720    -0.5270 ca         1 HUM      -0.101300
     15 C20         -9.1240    -1.9430     0.2180 ca         1 HUM      -0.082500
     16 C21        -10.4930    -1.9710     0.5380 ca         1 HUM      -0.114500
     17 C22        -11.3360    -0.9280     0.1170 ca         1 HUM      -0.095000
     18 C23        -10.8080     0.1430    -0.6240 ca         1 HUM      -0.114500
     19 C24         -9.4390     0.1720    -0.9450 ca         1 HUM      -0.082500
     20 C25         -4.2310    -0.4260    -0.9050 ca         1 HUM      -0.224000
     21 C26         -2.8440    -0.2020    -0.8810 ca         1 HUM      -0.026000
     22 C27          6.4040    -1.6610     0.4930 c          1 HUM       0.622100
     23 F14         -2.5780     1.6600     2.2770 f          1 HUM      -0.171000
     24 N05          2.0950     0.9400     0.1820 n          1 HUM      -0.272000
     25 N29          7.2840    -1.9440     1.5350 ns         1 HUM      -0.362400
     26 O11          2.0090     0.9110    -2.1320 o          1 HUM      -0.576000
     27 O17         -6.4070    -0.1590     0.1790 os         1 HUM      -0.335100
     28 O28          6.0270    -2.5440    -0.2650 o          1 HUM      -0.579100
     29 O30          7.5970    -3.3120     1.9010 oh         1 HUM      -0.417100
     30 S31          6.6280     0.4440    -1.1630 s6         1 HUM       1.059000
     31 H1          -5.0740     1.0790     2.0290 ha         1 HUM       0.149000
     32 H2           6.0270     1.7310     1.4630 hc         1 HUM       0.060033
     33 H3           5.9700     0.3280     2.5340 hc         1 HUM       0.060033
     34 H4           7.4610     0.7320     1.6470 hc         1 HUM       0.060033
     35 H5           3.9680    -0.9080    -0.4580 hc         1 HUM       0.076200
     36 H6           3.9590    -0.7170     1.2740 hc         1 HUM       0.076200
     37 H7           3.8290     1.7690     1.0300 h1         1 HUM       0.075200
     38 H8           3.8830     1.6180    -0.7230 h1         1 HUM       0.075200
     39 H9           2.0420     0.8820     2.2530 h4         1 HUM       0.199000
     40 H10         -0.4530     0.6090     2.3900 ha         1 HUM       0.207000
     41 H11         -0.5060     0.6870    -1.9360 ha         1 HUM       0.212000
     42 H12         -6.7360    -1.8690    -0.9820 h1         1 HUM       0.044700
     43 H13         -6.9670    -0.3240    -1.8320 h1         1 HUM       0.044700
     44 H14         -8.4780    -2.7530     0.5500 ha         1 HUM       0.115000
     45 H15        -10.8990    -2.8000     1.1130 ha         1 HUM       0.116000
     46 H16        -12.3950    -0.9500     0.3650 ha         1 HUM       0.115000
     47 H17        -11.4590     0.9520    -0.9490 ha         1 HUM       0.116000
     48 H18         -9.0390     1.0060    -1.5170 ha         1 HUM       0.115000
     49 H19         -4.6540    -0.9600    -1.7510 ha         1 HUM       0.125000
     50 H20         -2.2500    -0.5960    -1.7010 ha         1 HUM       0.123000
     51 H21          4.7100    -0.0250    -2.4820 h1         1 HUM       0.120700
     52 H22          6.2200     0.0750    -3.4550 h1         1 HUM       0.120700
     53 H23          5.8900    -1.3980    -2.4770 h1         1 HUM       0.120700
     54 H24          7.4480    -1.2410     2.2530 hn         1 HUM       0.350500
     55 H25          8.5830    -3.3250     1.9310 ho         1 HUM       0.453000
     56 C04          3.5670     1.1080     0.1940 c3         1 HUM       0.082000
     57 C32          5.7640    -0.3140    -2.5400 c3         1 HUM      -0.314100
     58 O33          6.3500     1.8840    -1.2280 o          1 HUM      -0.516500
     59 O34          8.0250    -0.0030    -1.2170 o          1 HUM      -0.516500
@<TRIPOS>BOND
     1     1    12 1   
     2     1    24 1   
     3     1    26 2   
     4     2     3 ar  
     5     2    11 1   
     6     2    21 ar  
     7     3     4 ar  
     8     3    23 1   
     9     4     5 ar  
    10     4    31 1   
    11     5    20 ar  
    12     5    27 1   
    13     6     7 1   
    14     6    32 1   
    15     6    33 1   
    16     6    34 1   
    17     7     8 1   
    18     7    22 1   
    19     7    30 1   
    20     8    35 1   
    21     8    36 1   
    22     8    56 1   
    23     9    10 2   
    24     9    24 1   
    25     9    39 1   
    26    10    11 1   
    27    10    40 1   
    28    11    12 2   
    29    12    41 1   
    30    13    14 1   
    31    13    27 1   
    32    13    42 1   
    33    13    43 1   
    34    14    15 ar  
    35    14    19 ar  
    36    15    16 ar  
    37    15    44 1   
    38    16    17 ar  
    39    16    45 1   
    40    17    18 ar  
    41    17    46 1   
    42    18    19 ar  
    43    18    47 1   
    44    19    48 1   
    45    20    21 ar  
    46    20    49 1   
    47    21    50 1   
    48    22    25 1   
    49    22    28 2   
    50    24    56 1   
    51    25    29 1   
    52    25    54 1   
    53    29    55 1   
    54    30    57 1   
    55    30    58 2   
    56    30    59 2   
    57    37    56 1   
    58    38    56 1   
    59    51    57 1   
    60    52    57 1   
    61    53    57 1   
@<TRIPOS>SUBSTRUCTURE
     1 HUM         1 TEMP              0 ****  ****    0 ROOT
