@<TRIPOS>MOLECULE
HUN
   66    68     1     0     0
SMALL
abcg2


@<TRIPOS>ATOM
      1 C10         -6.7610    -0.5550     0.7620 c3         1 HUN      -0.071900
      2 C11         -5.9160     0.2320     1.7650 c3         1 HUN      -0.070900
      3 C16          0.5200     0.9820    -2.2560 cc         1 HUN      -0.101100
      4 C18         -0.4340     2.4050    -0.8330 ca         1 HUN      -0.047200
      5 C19          0.7320     1.8950    -0.2220 ca         1 HUN      -0.098800
      6 C20          1.0530     2.3010     1.0780 ca         1 HUN      -0.101000
      7 C21          0.2160     3.1890     1.7260 ca         1 HUN      -0.113000
      8 C25          4.8280    -1.4120     0.1630 c3         1 HUN       0.092600
      9 C02          1.0300    -1.6390    -0.1240 c          1 HUN       0.585100
     10 C04         -1.3640    -1.5590     0.4250 c3         1 HUN       0.097000
     11 C05         -2.2230    -0.3910     0.8880 c3         1 HUN      -0.103400
     12 C06         -3.7200    -0.5480     0.6060 c3         1 HUN      -0.048700
     13 C07         -3.9890    -0.5030    -0.9020 c3         1 HUN      -0.066900
     14 C08         -5.3890    -0.9030    -1.3580 c3         1 HUN      -0.070900
     15 C09         -6.5610    -0.1740    -0.7040 c3         1 HUN      -0.071900
     16 C12         -4.4900     0.5690     1.3270 c3         1 HUN      -0.066900
     17 C13          2.3530    -0.9220     0.1230 c3         1 HUN       0.006300
     18 C14          2.5530     0.1600    -0.9530 c3         1 HUN       0.012800
     19 C15          1.3290     0.9880    -1.1550 cd         1 HUN      -0.213400
     20 C22         -0.9380     3.6850     1.0980 ca         1 HUN      -0.086000
     21 C23         -1.2780     3.3050    -0.1860 ca         1 HUN      -0.107000
     22 N03          0.0340    -1.2560     0.6690 ns         1 HUN      -0.456900
     23 N17         -0.5290     1.8330    -2.0690 na         1 HUN      -0.204700
     24 N24          3.4380    -1.9410     0.0610 ny         1 HUN      -0.813000
     25 O01          0.9440    -2.4550    -1.0300 o          1 HUN      -0.598100
     26 C26          5.8380    -2.5410     0.1880 c3         1 HUN      -0.109400
     27 C27          7.2570    -1.9920     0.2920 c3         1 HUN      -0.068400
     28 C28          8.3050    -3.0950     0.2950 c3         1 HUN      -0.093100
     29 H1          -6.5530    -1.6250     0.8650 hc         1 HUN       0.042200
     30 H2          -7.8120    -0.4350     1.0360 hc         1 HUN       0.042200
     31 H3          -6.4220     1.1720     2.0040 hc         1 HUN       0.040700
     32 H4          -5.8800    -0.3300     2.7030 hc         1 HUN       0.040700
     33 H5           0.6210     0.4250    -3.1740 h4         1 HUN       0.226000
     34 H6           1.9430     1.9290     1.5740 ha         1 HUN       0.098000
     35 H7           0.4500     3.5090     2.7330 ha         1 HUN       0.123000
     36 H8           4.9920    -0.7610    -0.6920 hx         1 HUN       0.099200
     37 H9           4.8720    -0.8110     1.0710 hx         1 HUN       0.099200
     38 H10         -1.6560    -2.4740     0.9500 h1         1 HUN       0.068200
     39 H11         -1.4860    -1.7480    -0.6410 h1         1 HUN       0.068200
     40 H12         -2.0770    -0.2640     1.9660 hc         1 HUN       0.049200
     41 H13         -1.8640     0.5310     0.4190 hc         1 HUN       0.049200
     42 H14         -4.0410    -1.5210     1.0040 hc         1 HUN       0.058700
     43 H15         -3.7680     0.5150    -1.2480 hc         1 HUN       0.031950
     44 H16         -3.2840    -1.1520    -1.4280 hc         1 HUN       0.031950
     45 H17         -5.4410    -0.7640    -2.4420 hc         1 HUN       0.040700
     46 H18         -5.5220    -1.9770    -1.1880 hc         1 HUN       0.040700
     47 H19         -7.4650    -0.4340    -1.2610 hc         1 HUN       0.042200
     48 H20         -6.4460     0.9100    -0.8100 hc         1 HUN       0.042200
     49 H21         -4.5010     1.4500     0.6760 hc         1 HUN       0.031950
     50 H22         -3.9380     0.8800     2.2180 hc         1 HUN       0.031950
     51 H23          2.3960    -0.4900     1.1240 hx         1 HUN       0.102700
     52 H24          3.3950     0.7940    -0.6660 hc         1 HUN       0.065700
     53 H25          2.8260    -0.3230    -1.8950 hc         1 HUN       0.065700
     54 H26         -1.5750     4.3770     1.6330 ha         1 HUN       0.129000
     55 H27         -2.1720     3.6830    -0.6650 ha         1 HUN       0.130000
     56 H28          0.2330    -0.5920     1.4010 hn         1 HUN       0.326500
     57 H29         -1.2550     2.0060    -2.7440 hn         1 HUN       0.368000
     58 H30          3.3350    -2.4770    -0.8060 hn         1 HUN       0.510000
     59 H31          3.2960    -2.6170     0.8150 hn         1 HUN       0.510000
     60 H32          5.6380    -3.2040     1.0340 hc         1 HUN       0.064200
     61 H33          5.7420    -3.1420    -0.7210 hc         1 HUN       0.064200
     62 H34          7.4420    -1.3100    -0.5420 hc         1 HUN       0.051700
     63 H35          7.3470    -1.3930     1.2030 hc         1 HUN       0.051700
     64 H36          8.1680    -3.7690     1.1420 hc         1 HUN       0.049700
     65 H37          8.2520    -3.6920    -0.6170 hc         1 HUN       0.049700
     66 H38          9.3110    -2.6800     0.3620 hc         1 HUN       0.049700
@<TRIPOS>BOND
     1     1     2 1   
     2     1    15 1   
     3     1    29 1   
     4     1    30 1   
     5     2    16 1   
     6     2    31 1   
     7     2    32 1   
     8     3    19 2   
     9     3    23 1   
    10     3    33 1   
    11     4     5 ar  
    12     4    21 ar  
    13     4    23 1   
    14     5     6 ar  
    15     5    19 1   
    16     6     7 ar  
    17     6    34 1   
    18     7    20 ar  
    19     7    35 1   
    20     8    24 1   
    21     8    26 1   
    22     8    36 1   
    23     8    37 1   
    24     9    17 1   
    25     9    22 1   
    26     9    25 2   
    27    10    11 1   
    28    10    22 1   
    29    10    38 1   
    30    10    39 1   
    31    11    12 1   
    32    11    40 1   
    33    11    41 1   
    34    12    13 1   
    35    12    16 1   
    36    12    42 1   
    37    13    14 1   
    38    13    43 1   
    39    13    44 1   
    40    14    15 1   
    41    14    45 1   
    42    14    46 1   
    43    15    47 1   
    44    15    48 1   
    45    16    49 1   
    46    16    50 1   
    47    17    18 1   
    48    17    24 1   
    49    17    51 1   
    50    18    19 1   
    51    18    52 1   
    52    18    53 1   
    53    20    21 ar  
    54    20    54 1   
    55    21    55 1   
    56    22    56 1   
    57    23    57 1   
    58    24    58 1   
    59    24    59 1   
    60    26    27 1   
    61    26    60 1   
    62    26    61 1   
    63    27    28 1   
    64    27    62 1   
    65    27    63 1   
    66    28    64 1   
    67    28    65 1   
    68    28    66 1   
@<TRIPOS>SUBSTRUCTURE
     1 HUN         1 TEMP              0 ****  ****    0 ROOT
