@<TRIPOS>MOLECULE
HUN
   66    68     1     0     0
SMALL
No Charge or Current Charge


@<TRIPOS>ATOM
      1 C10         -6.9280    -0.0600     0.1600 c3         1 HUN      -0.071900
      2 C11         -5.9500     1.0930    -0.1590 c3         1 HUN      -0.070900
      3 C16          0.4280     1.9230    -1.5540 cc         1 HUN      -0.101100
      4 C18         -0.0740     2.9370     0.4360 ca         1 HUN      -0.047200
      5 C19          1.0270     2.1640     0.6700 ca         1 HUN      -0.098800
      6 C20          1.6330     2.0930     1.9320 ca         1 HUN      -0.101000
      7 C21          1.0570     2.8480     2.9770 ca         1 HUN      -0.113000
      8 C25          4.8090    -1.4050     0.0480 c3         1 HUN       0.092600
      9 C02          0.8300    -1.3380    -0.1100 c          1 HUN       0.585100
     10 C04         -1.4920    -1.3250     0.8560 c3         1 HUN       0.097000
     11 C05         -2.2980    -0.3160     0.0070 c3         1 HUN      -0.103400
     12 C06         -3.8440    -0.4930     0.0500 c3         1 HUN      -0.048700
     13 C07         -4.2810    -1.8470    -0.5910 c3         1 HUN      -0.066900
     14 C08         -5.7430    -2.2910    -0.3540 c3         1 HUN      -0.070900
     15 C09         -6.8420    -1.2880    -0.7690 c3         1 HUN      -0.071900
     16 C12         -4.5330     0.7150    -0.6520 c3         1 HUN      -0.066900
     17 C13          2.2610    -0.7560     0.0700 c3         1 HUN       0.006300
     18 C14          2.4430     0.5120    -0.7970 c3         1 HUN       0.012800
     19 C15          1.3400     1.5190    -0.5840 cd         1 HUN      -0.213400
     20 C22         -0.0900     3.6440     2.7390 ca         1 HUN      -0.086000
     21 C23         -0.6700     3.6960     1.4520 ca         1 HUN      -0.107000
     22 N03         -0.0700    -0.9810     0.8690 ns         1 HUN      -0.456900
     23 N17         -0.4430     2.8130    -0.8910 na         1 HUN      -0.204700
     24 N24          3.3640    -1.8070    -0.2210 ny         1 HUN      -0.813000
     25 O01          0.5510    -2.1150    -1.0140 o          1 HUN      -0.598100
     26 C26          5.7680    -2.5630    -0.2700 c3         1 HUN      -0.109400
     27 C27          7.2440    -2.1930    -0.0130 c3         1 HUN      -0.068400
     28 C28          8.2180    -3.3450    -0.3290 c3         1 HUN      -0.093100
     29 H1          -6.7780    -0.3820     1.1980 hc         1 HUN       0.042200
     30 H2          -7.9480     0.3420     0.1190 hc         1 HUN       0.042200
     31 H3          -6.4080     1.7390    -0.9190 hc         1 HUN       0.040700
     32 H4          -5.8550     1.7140     0.7410 hc         1 HUN       0.040700
     33 H5           0.3240     1.6550    -2.6020 h4         1 HUN       0.226000
     34 H6           2.5160     1.4830     2.1040 ha         1 HUN       0.098000
     35 H7           1.4980     2.8180     3.9710 ha         1 HUN       0.123000
     36 H8           5.0640    -0.5400    -0.5710 hx         1 HUN       0.099200
     37 H9           4.9120    -1.1200     1.1000 hx         1 HUN       0.099200
     38 H10         -1.8630    -1.3140     1.8890 h1         1 HUN       0.068200
     39 H11         -1.6080    -2.3430     0.4630 h1         1 HUN       0.068200
     40 H12         -2.0510     0.6870     0.3770 hc         1 HUN       0.049200
     41 H13         -1.9530    -0.3580    -1.0340 hc         1 HUN       0.049200
     42 H14         -4.1400    -0.4930     1.1070 hc         1 HUN       0.058700
     43 H15         -4.0940    -1.8090    -1.6720 hc         1 HUN       0.031950
     44 H16         -3.6490    -2.6560    -0.2100 hc         1 HUN       0.031950
     45 H17         -5.9040    -3.2240    -0.9080 hc         1 HUN       0.040700
     46 H18         -5.8700    -2.5450     0.7060 hc         1 HUN       0.040700
     47 H19         -7.8050    -1.8120    -0.7290 hc         1 HUN       0.042200
     48 H20         -6.7040    -0.9740    -1.8110 hc         1 HUN       0.042200
     49 H21         -4.5700     0.5270    -1.7330 hc         1 HUN       0.031950
     50 H22         -3.9120     1.6120    -0.5380 hc         1 HUN       0.031950
     51 H23          2.3400    -0.4690     1.1210 hx         1 HUN       0.102700
     52 H24          3.4080     0.9760    -0.5630 hc         1 HUN       0.065700
     53 H25          2.4860     0.2200    -1.8530 hc         1 HUN       0.065700
     54 H26         -0.5260     4.2210     3.5510 ha         1 HUN       0.129000
     55 H27         -1.5500     4.3050     1.2580 ha         1 HUN       0.130000
     56 H28          0.2530    -0.3140     1.5600 hn         1 HUN       0.326500
     57 H29         -1.2270     3.2940    -1.3220 hn         1 HUN       0.368000
     58 H30          3.2670    -2.1350    -1.2080 hn         1 HUN       0.510000
     59 H31          3.1510    -2.6820     0.3070 hn         1 HUN       0.510000
     60 H32          5.5010    -3.4320     0.3440 hc         1 HUN       0.064200
     61 H33          5.6450    -2.8550    -1.3200 hc         1 HUN       0.064200
     62 H34          7.5120    -1.3210    -0.6240 hc         1 HUN       0.051700
     63 H35          7.3680    -1.8970     1.0370 hc         1 HUN       0.051700
     64 H36          7.9970    -4.2220     0.2930 hc         1 HUN       0.049700
     65 H37          8.1430    -3.6400    -1.3820 hc         1 HUN       0.049700
     66 H38          9.2520    -3.0370    -0.1320 hc         1 HUN       0.049700
@<TRIPOS>BOND
     1     1     2 1   
     2     1    15 1   
     3     1    29 1   
     4     1    30 1   
     5     2    16 1   
     6     2    31 1   
     7     2    32 1   
     8     3    19 2   
     9     3    23 1   
    10     3    33 1   
    11     4     5 ar  
    12     4    21 ar  
    13     4    23 1   
    14     5     6 ar  
    15     5    19 1   
    16     6     7 ar  
    17     6    34 1   
    18     7    20 ar  
    19     7    35 1   
    20     8    24 1   
    21     8    26 1   
    22     8    36 1   
    23     8    37 1   
    24     9    17 1   
    25     9    22 1   
    26     9    25 2   
    27    10    11 1   
    28    10    22 1   
    29    10    38 1   
    30    10    39 1   
    31    11    12 1   
    32    11    40 1   
    33    11    41 1   
    34    12    13 1   
    35    12    16 1   
    36    12    42 1   
    37    13    14 1   
    38    13    43 1   
    39    13    44 1   
    40    14    15 1   
    41    14    45 1   
    42    14    46 1   
    43    15    47 1   
    44    15    48 1   
    45    16    49 1   
    46    16    50 1   
    47    17    18 1   
    48    17    24 1   
    49    17    51 1   
    50    18    19 1   
    51    18    52 1   
    52    18    53 1   
    53    20    21 ar  
    54    20    54 1   
    55    21    55 1   
    56    22    56 1   
    57    23    57 1   
    58    24    58 1   
    59    24    59 1   
    60    26    27 1   
    61    26    60 1   
    62    26    61 1   
    63    27    28 1   
    64    27    62 1   
    65    27    63 1   
    66    28    64 1   
    67    28    65 1   
    68    28    66 1   
@<TRIPOS>SUBSTRUCTURE
     1 HUN         1 TEMP              0 ****  ****    0 ROOT
