@<TRIPOS>MOLECULE
HUO
   86    89     1     0     0
SMALL
No Charge or Current Charge


@<TRIPOS>ATOM
      1 C8          18.9720   -22.0150   -26.4610 c5         1 HUO      -0.094400
      2 C5          18.3840   -20.0880   -29.0320 c3         1 HUO       0.032700
      3 N3          17.2750   -22.7100   -25.0430 ns         1 HUO      -0.515900
      4 N1          19.7800   -16.6080   -25.7910 ns         1 HUO      -0.478900
      5 C6          17.3650   -20.9770   -28.2640 c3         1 HUO      -0.068400
      6 C1          20.1310   -16.1040   -23.3880 c3         1 HUO       0.056700
      7 C10         16.6080   -22.0080   -26.0100 c          1 HUO       0.564000
      8 C11         18.1090   -20.0240   -30.5650 c          1 HUO       0.498800
      9 C12         19.2520   -19.6370   -31.4450 cc         1 HUO       0.283200
     10 C13         21.2700   -19.0130   -32.1020 ca         1 HUO       0.077400
     11 C14         20.6420   -19.0550   -33.3300 ca         1 HUO      -0.194000
     12 C15         22.6230   -18.6460   -32.0190 ca         1 HUO      -0.046000
     13 C16         23.3260   -18.3240   -33.1980 ca         1 HUO      -0.116000
     14 C17         22.6730   -18.3700   -34.4480 ca         1 HUO      -0.090000
     15 C18         21.3160   -18.7400   -34.5200 ca         1 HUO      -0.077000
     16 C19         19.5630   -15.7260   -28.1220 c3         1 HUO      -0.084400
     17 C20         19.2000   -14.2500   -27.7980 c3         1 HUO      -0.060700
     18 C21         17.6740   -13.9940   -27.8190 c3         1 HUO      -0.090600
     19 C22         19.9240   -13.2810   -28.7610 c3         1 HUO      -0.090600
     20 C24         19.9500   -17.4220   -22.5590 c3         1 HUO      -0.070700
     21 C25         20.8450   -17.4610   -21.2930 c3         1 HUO      -0.092100
     22 C26         20.1670   -18.7060   -23.4020 c3         1 HUO      -0.092100
     23 C27         20.9190   -12.3570   -20.3250 c3         1 HUO       0.230900
     24 C28         21.3380   -13.1750   -19.1040 ca         1 HUO      -0.124300
     25 C29         22.7020   -13.4040   -18.8300 ca         1 HUO      -0.087000
     26 C3          19.0880   -16.7830   -27.0870 c3         1 HUO       0.038700
     27 C30         23.0820   -14.1630   -17.7080 ca         1 HUO      -0.113500
     28 C31         22.1020   -14.6960   -16.8540 ca         1 HUO      -0.101000
     29 C32         20.7410   -14.4710   -17.1220 ca         1 HUO      -0.113500
     30 C33         20.3610   -13.7130   -18.2430 ca         1 HUO      -0.087000
     31 C7          17.6800   -21.2030   -26.7570 c5         1 HUO      -0.158700
     32 C9          18.7160   -22.4670   -24.9970 c5         1 HUO       0.101000
     33 N2          18.3970   -18.7130   -28.4790 ns         1 HUO      -0.493900
     34 N4          20.4930   -19.3460   -31.0020 nd         1 HUO      -0.488100
     35 N5          19.8420   -14.9150   -22.5560 ns         1 HUO      -0.498900
     36 O2          20.3160   -18.8880   -27.2600 o          1 HUO      -0.596100
     37 O3          16.9930   -20.2780   -31.0130 o          1 HUO      -0.487100
     38 O4          15.4440   -22.2190   -26.3050 o          1 HUO      -0.554000
     39 O5          20.1370   -13.1860   -21.2040 os         1 HUO      -0.455100
     40 O6          21.9830   -14.3410   -21.9600 o          1 HUO      -0.539000
     41 S1          18.9600   -19.5380   -33.2000 ss         1 HUO       0.118800
     42 H1          19.0590   -22.8840   -27.1240 hc         1 HUO       0.064200
     43 H2          19.8930   -21.4310   -26.5620 hc         1 HUO       0.064200
     44 H3          19.3810   -20.5340   -28.9170 h1         1 HUO       0.111700
     45 H4          16.7640   -23.3830   -24.4840 hn         1 HUO       0.325500
     46 H5          20.7100   -17.0030   -25.6990 hn         1 HUO       0.331500
     47 H6          16.3690   -20.5250   -28.3600 hc         1 HUO       0.070700
     48 H7          17.3020   -21.9510   -28.7660 hc         1 HUO       0.070700
     49 H8          21.1700   -16.0440   -23.7370 h1         1 HUO       0.087700
     50 H9          23.1220   -18.6110   -31.0540 ha         1 HUO       0.136000
     51 H10         24.3740   -18.0380   -33.1440 ha         1 HUO       0.120000
     52 H11         23.2170   -18.1210   -35.3570 ha         1 HUO       0.118000
     53 H12         20.8040   -18.7790   -35.4800 ha         1 HUO       0.127000
     54 H13         19.1470   -15.9780   -29.1060 hc         1 HUO       0.059700
     55 H14         20.6530   -15.8140   -28.2230 hc         1 HUO       0.059700
     56 H15         19.5620   -14.0220   -26.7880 hc         1 HUO       0.050700
     57 H16         17.1560   -14.6020   -27.0700 hc         1 HUO       0.035367
     58 H17         17.4560   -12.9430   -27.5960 hc         1 HUO       0.035367
     59 H18         17.2520   -14.2290   -28.8030 hc         1 HUO       0.035367
     60 H19         19.7020   -12.2390   -28.5030 hc         1 HUO       0.035367
     61 H20         21.0110   -13.4170   -28.7050 hc         1 HUO       0.035367
     62 H21         19.6100   -13.4530   -29.7980 hc         1 HUO       0.035367
     63 H22         18.9090   -17.4460   -22.2120 hc         1 HUO       0.064700
     64 H23         20.5900   -16.6520   -20.5980 hc         1 HUO       0.040533
     65 H24         20.7130   -18.4060   -20.7530 hc         1 HUO       0.040533
     66 H25         21.9040   -17.3660   -21.5610 hc         1 HUO       0.040533
     67 H26         20.0810   -19.6010   -22.7730 hc         1 HUO       0.040533
     68 H27         19.4150   -18.7970   -24.1940 hc         1 HUO       0.040533
     69 H28         21.1620   -18.7100   -23.8630 hc         1 HUO       0.040533
     70 H29         21.7990   -11.9510   -20.8420 h1         1 HUO       0.067700
     71 H30         20.3190   -11.5040   -19.9830 h1         1 HUO       0.067700
     72 H31         23.4690   -13.0000   -19.4870 ha         1 HUO       0.116000
     73 H32         18.0050   -16.6960   -26.9370 h1         1 HUO       0.076700
     74 H33         24.1350   -14.3370   -17.5020 ha         1 HUO       0.113500
     75 H34         22.3960   -15.2830   -15.9870 ha         1 HUO       0.113000
     76 H35         19.9810   -14.8840   -16.4620 ha         1 HUO       0.113500
     77 H36         19.3050   -13.5450   -18.4460 ha         1 HUO       0.116000
     78 H37         17.7570   -20.2380   -26.2430 hc         1 HUO       0.094700
     79 H38         19.2920   -23.3650   -24.7360 h1         1 HUO       0.043200
     80 H39         18.9640   -21.6720   -24.2810 h1         1 HUO       0.043200
     81 H40         17.6240   -18.0940   -28.7020 hn         1 HUO       0.321500
     82 H41         18.8800   -14.6210   -22.4420 hn         1 HUO       0.340500
     83 C4          19.3490   -18.2230   -27.6080 c          1 HUO       0.599100
     84 C2          19.2210   -16.0670   -24.6510 c          1 HUO       0.585100
     85 C23         20.7770   -14.1620   -21.9060 c          1 HUO       0.643100
     86 O1          18.0900   -15.5930   -24.6440 o          1 HUO      -0.614100
@<TRIPOS>BOND
     1     1    31 1   
     2     1    32 1   
     3     1    42 1   
     4     1    43 1   
     5     2     5 1   
     6     2     8 1   
     7     2    33 1   
     8     2    44 1   
     9     3     7 1   
    10     3    32 1   
    11     3    45 1   
    12     4    26 1   
    13     4    46 1   
    14     4    84 1   
    15     5    31 1   
    16     5    47 1   
    17     5    48 1   
    18     6    20 1   
    19     6    35 1   
    20     6    49 1   
    21     6    84 1   
    22     7    31 1   
    23     7    38 2   
    24     8     9 1   
    25     8    37 2   
    26     9    34 2   
    27     9    41 1   
    28    10    11 ar  
    29    10    12 ar  
    30    10    34 1   
    31    11    15 ar  
    32    11    41 1   
    33    12    13 ar  
    34    12    50 1   
    35    13    14 ar  
    36    13    51 1   
    37    14    15 ar  
    38    14    52 1   
    39    15    53 1   
    40    16    17 1   
    41    16    26 1   
    42    16    54 1   
    43    16    55 1   
    44    17    18 1   
    45    17    19 1   
    46    17    56 1   
    47    18    57 1   
    48    18    58 1   
    49    18    59 1   
    50    19    60 1   
    51    19    61 1   
    52    19    62 1   
    53    20    21 1   
    54    20    22 1   
    55    20    63 1   
    56    21    64 1   
    57    21    65 1   
    58    21    66 1   
    59    22    67 1   
    60    22    68 1   
    61    22    69 1   
    62    23    24 1   
    63    23    39 1   
    64    23    70 1   
    65    23    71 1   
    66    24    25 ar  
    67    24    30 ar  
    68    25    27 ar  
    69    25    72 1   
    70    26    73 1   
    71    26    83 1   
    72    27    28 ar  
    73    27    74 1   
    74    28    29 ar  
    75    28    75 1   
    76    29    30 ar  
    77    29    76 1   
    78    30    77 1   
    79    31    78 1   
    80    32    79 1   
    81    32    80 1   
    82    33    81 1   
    83    33    83 1   
    84    35    82 1   
    85    35    85 1   
    86    36    83 2   
    87    39    85 1   
    88    40    85 2   
    89    84    86 2   
@<TRIPOS>SUBSTRUCTURE
     1 HUO         1 TEMP              0 ****  ****    0 ROOT
