@<TRIPOS>MOLECULE
HUO
   86    89     1     0     0
SMALL
bcc


@<TRIPOS>ATOM
      1 C8          18.6120   -21.8420   -26.1810 c5         1 HUO      -0.094400
      2 C5          18.1670   -19.9950   -28.6930 c3         1 HUO       0.032700
      3 N3          16.8410   -22.4590   -24.8200 ns         1 HUO      -0.582900
      4 N1          20.1190   -16.6970   -25.7940 ns         1 HUO      -0.545900
      5 C6          17.0690   -20.7440   -27.9450 c3         1 HUO      -0.068400
      6 C1          20.1720   -16.9470   -23.3720 c3         1 HUO       0.056700
      7 C10         16.2780   -21.6250   -25.7100 c          1 HUO       0.706500
      8 C11         17.8460   -19.8350   -30.1750 c          1 HUO       0.498800
      9 C12         18.8920   -19.2210   -31.0290 cc         1 HUO       0.283200
     10 C13         20.8180   -18.4210   -31.6840 ca         1 HUO       0.077400
     11 C14         20.0960   -18.2400   -32.8790 ca         1 HUO      -0.067100
     12 C15         22.1590   -18.0310   -31.6110 ca         1 HUO      -0.064000
     13 C16         22.7440   -17.4710   -32.7250 ca         1 HUO      -0.134000
     14 C17         22.0150   -17.2950   -33.9110 ca         1 HUO      -0.108000
     15 C18         20.6900   -17.6740   -34.0040 ca         1 HUO      -0.095000
     16 C19         20.3990   -16.0620   -28.1400 c3         1 HUO      -0.084400
     17 C20         20.4910   -14.5520   -27.9070 c3         1 HUO      -0.060700
     18 C21         19.1200   -13.8840   -27.9060 c3         1 HUO      -0.090600
     19 C22         21.3910   -13.9370   -28.9750 c3         1 HUO      -0.090600
     20 C24         20.2390   -18.2930   -22.6360 c3         1 HUO      -0.070700
     21 C25         20.9470   -18.1400   -21.2940 c3         1 HUO      -0.092100
     22 C26         20.9430   -19.3400   -23.4930 c3         1 HUO      -0.092100
     23 C27         19.6840   -12.8620   -20.9070 c3         1 HUO       0.207700
     24 C28         20.5680   -13.1800   -19.7320 ca         1 HUO      -0.124300
     25 C29         21.7710   -12.5080   -19.5520 ca         1 HUO      -0.105000
     26 C3          19.5610   -16.8270   -27.1160 c3         1 HUO       0.038700
     27 C30         22.5690   -12.7700   -18.4450 ca         1 HUO      -0.131500
     28 C31         22.1740   -13.7180   -17.5120 ca         1 HUO      -0.119000
     29 C32         20.9760   -14.4000   -17.6900 ca         1 HUO      -0.131500
     30 C33         20.1750   -14.1280   -18.7900 ca         1 HUO      -0.105000
     31 C7          17.4070   -20.9490   -26.4780 c5         1 HUO      -0.158700
     32 C9          18.2890   -22.4450   -24.8140 c5         1 HUO       0.101000
     33 N2          18.3970   -18.6760   -28.1540 ns         1 HUO      -0.560900
     34 N4          20.1010   -18.9790   -30.6630 nd         1 HUO      -0.488100
     35 N5          19.4800   -15.9420   -22.6010 ns         1 HUO      -0.565900
     36 O2          20.4680   -19.0380   -27.3020 o          1 HUO      -0.596100
     37 O3          16.7940   -20.1550   -30.6720 o          1 HUO      -0.487100
     38 O4          15.0840   -21.4330   -25.8640 o          1 HUO      -0.629500
     39 O5          19.1730   -14.0370   -21.5300 os         1 HUO      -0.431900
     40 O6          21.1680   -14.4160   -22.5100 o          1 HUO      -0.588000
     41 S1          18.4810   -18.8090   -32.6700 ss         1 HUO      -0.008100
     42 H1          18.6780   -22.6360   -26.9300 hc         1 HUO       0.064200
     43 H2          19.5560   -21.3020   -26.1810 hc         1 HUO       0.064200
     44 H3          19.1100   -20.5440   -28.6250 h1         1 HUO       0.111700
     45 H4          16.2990   -22.9300   -24.1130 hn         1 HUO       0.325500
     46 H5          21.0860   -16.4270   -25.7030 hn         1 HUO       0.331500
     47 H6          16.1270   -20.1960   -28.0270 hc         1 HUO       0.070700
     48 H7          16.9150   -21.7160   -28.4220 hc         1 HUO       0.070700
     49 H8          21.1920   -16.5920   -23.5340 h1         1 HUO       0.087700
     50 H9          22.7110   -18.1700   -30.6910 ha         1 HUO       0.154000
     51 H10         23.7800   -17.1630   -32.6900 ha         1 HUO       0.138000
     52 H11         22.4990   -16.8540   -34.7710 ha         1 HUO       0.136000
     53 H12         20.1350   -17.5350   -34.9220 ha         1 HUO       0.145000
     54 H13         19.9650   -16.2410   -29.1290 hc         1 HUO       0.059700
     55 H14         21.4070   -16.4880   -28.1630 hc         1 HUO       0.059700
     56 H15         20.9580   -14.3720   -26.9330 hc         1 HUO       0.050700
     57 H16         18.4890   -14.2360   -27.0890 hc         1 HUO       0.035367
     58 H17         19.2170   -12.8030   -27.7950 hc         1 HUO       0.035367
     59 H18         18.5920   -14.0770   -28.8430 hc         1 HUO       0.035367
     60 H19         21.5160   -12.8650   -28.8150 hc         1 HUO       0.035367
     61 H20         22.3830   -14.3910   -28.9710 hc         1 HUO       0.035367
     62 H21         20.9660   -14.0770   -29.9720 hc         1 HUO       0.035367
     63 H22         19.2120   -18.6280   -22.4520 hc         1 HUO       0.064700
     64 H23         20.4470   -17.4240   -20.6420 hc         1 HUO       0.040533
     65 H24         20.9740   -19.0960   -20.7700 hc         1 HUO       0.040533
     66 H25         21.9790   -17.8080   -21.4300 hc         1 HUO       0.040533
     67 H26         21.0220   -20.2810   -22.9480 hc         1 HUO       0.040533
     68 H27         20.4130   -19.5520   -24.4230 hc         1 HUO       0.040533
     69 H28         21.9550   -19.0200   -23.7490 hc         1 HUO       0.040533
     70 H29         20.2080   -12.2300   -21.6270 h1         1 HUO       0.067700
     71 H30         18.7960   -12.3210   -20.5800 h1         1 HUO       0.067700
     72 H31         22.0910   -11.7760   -20.2850 ha         1 HUO       0.134000
     73 H32         18.5460   -16.4230   -27.1070 h1         1 HUO       0.076700
     74 H33         23.5030   -12.2390   -18.3170 ha         1 HUO       0.131500
     75 H34         22.7970   -13.9280   -16.6530 ha         1 HUO       0.131000
     76 H35         20.6610   -15.1410   -16.9660 ha         1 HUO       0.131500
     77 H36         19.2400   -14.6610   -18.9110 ha         1 HUO       0.134000
     78 H37         17.5520   -19.9730   -25.9970 hc         1 HUO       0.094700
     79 H38         18.6910   -23.4500   -24.6910 h1         1 HUO       0.043200
     80 H39         18.6770   -21.8250   -23.9990 h1         1 HUO       0.043200
     81 H40         17.6310   -18.0200   -28.2010 hn         1 HUO       0.321500
     82 H41         18.5400   -16.1460   -22.2940 hn         1 HUO       0.340500
     83 C4          19.5230   -18.3010   -27.5180 c          1 HUO       0.666100
     84 C2          19.4450   -17.0940   -24.7060 c          1 HUO       0.652100
     85 C23         20.0420   -14.7730   -22.2380 c          1 HUO       0.759100
     86 O1          18.3020   -17.5250   -24.7570 o          1 HUO      -0.614100
@<TRIPOS>BOND
     1     1    31 1   
     2     1    32 1   
     3     1    42 1   
     4     1    43 1   
     5     2     5 1   
     6     2     8 1   
     7     2    33 1   
     8     2    44 1   
     9     3     7 1   
    10     3    32 1   
    11     3    45 1   
    12     4    26 1   
    13     4    46 1   
    14     4    84 1   
    15     5    31 1   
    16     5    47 1   
    17     5    48 1   
    18     6    20 1   
    19     6    35 1   
    20     6    49 1   
    21     6    84 1   
    22     7    31 1   
    23     7    38 2   
    24     8     9 1   
    25     8    37 2   
    26     9    34 2   
    27     9    41 1   
    28    10    11 ar  
    29    10    12 ar  
    30    10    34 1   
    31    11    15 ar  
    32    11    41 1   
    33    12    13 ar  
    34    12    50 1   
    35    13    14 ar  
    36    13    51 1   
    37    14    15 ar  
    38    14    52 1   
    39    15    53 1   
    40    16    17 1   
    41    16    26 1   
    42    16    54 1   
    43    16    55 1   
    44    17    18 1   
    45    17    19 1   
    46    17    56 1   
    47    18    57 1   
    48    18    58 1   
    49    18    59 1   
    50    19    60 1   
    51    19    61 1   
    52    19    62 1   
    53    20    21 1   
    54    20    22 1   
    55    20    63 1   
    56    21    64 1   
    57    21    65 1   
    58    21    66 1   
    59    22    67 1   
    60    22    68 1   
    61    22    69 1   
    62    23    24 1   
    63    23    39 1   
    64    23    70 1   
    65    23    71 1   
    66    24    25 ar  
    67    24    30 ar  
    68    25    27 ar  
    69    25    72 1   
    70    26    73 1   
    71    26    83 1   
    72    27    28 ar  
    73    27    74 1   
    74    28    29 ar  
    75    28    75 1   
    76    29    30 ar  
    77    29    76 1   
    78    30    77 1   
    79    31    78 1   
    80    32    79 1   
    81    32    80 1   
    82    33    81 1   
    83    33    83 1   
    84    35    82 1   
    85    35    85 1   
    86    36    83 2   
    87    39    85 1   
    88    40    85 2   
    89    84    86 2   
@<TRIPOS>SUBSTRUCTURE
     1 HUO         1 TEMP              0 ****  ****    0 ROOT
