@<TRIPOS>MOLECULE
HUP
   36    38     1     0     0
SMALL
abcg2


@<TRIPOS>ATOM
      1 C1           0.9290    68.8130    60.6260 c          1 HUP       0.549200
      2 O1           0.4090    68.9960    59.5120 o          1 HUP      -0.577000
      3 N1           2.3050    68.6660    60.7320 ns         1 HUP      -0.365100
      4 C2           0.2440    68.7190    61.8810 cc         1 HUP      -0.331200
      5 C3           0.9330    68.5190    63.0420 cd         1 HUP      -0.063000
      6 C4           2.3450    68.4030    63.0770 cd         1 HUP      -0.183200
      7 C5           3.0110    68.4680    61.8820 cc         1 HUP       0.082400
      8 C6           4.4960    68.3270    61.7410 c6         1 HUP      -0.042200
      9 C7           5.1000    67.7090    63.0170 c6         1 HUP       0.027700
     10 C8           4.7490    66.2430    63.1160 c2         1 HUP      -0.233200
     11 C9           6.7020    69.6550    64.8600 c3         1 HUP      -0.054900
     12 C10          5.2520    69.2970    64.9730 c2         1 HUP      -0.208200
     13 C11          4.5570    68.4660    64.2000 c2         1 HUP      -0.147400
     14 C12          3.0760    68.1610    64.4010 c6         1 HUP       0.283600
     15 N2           2.4020    68.9270    65.4490 n8         1 HUP      -1.002200
     16 C13          2.9630    66.6650    64.7780 c6         1 HUP      -0.030200
     17 C14          3.7910    65.7600    63.9060 c2         1 HUP      -0.093400
     18 C15          3.4690    64.2960    63.9860 c3         1 HUP      -0.053900
     19 HN1          2.8150    68.7040    59.8580 hn         1 HUP       0.321500
     20 H2          -0.8340    68.8100    61.8690 ha         1 HUP       0.209000
     21 H3           0.3940    68.4520    63.9770 ha         1 HUP       0.202000
     22 H61          4.7230    67.7090    60.8680 hc         1 HUP       0.062700
     23 H62          4.9370    69.3130    61.5600 hc         1 HUP       0.062700
     24 H7           6.1830    67.8050    62.9530 hc         1 HUP       0.064700
     25 H8           5.3160    65.5670    62.4820 ha         1 HUP       0.175000
     26 H91          7.2280    69.4270    65.7920 hc         1 HUP       0.042367
     27 H92          7.2120    69.1360    64.0500 hc         1 HUP       0.042367
     28 H93          6.8180    70.7310    64.6950 hc         1 HUP       0.042367
     29 H10          4.7270    69.7920    65.7840 ha         1 HUP       0.161000
     30 HN21         2.8440    68.7480    66.3440 hn         1 HUP       0.404500
     31 HN22         2.4900    69.9220    65.2690 hn         1 HUP       0.404500
     32 H131         3.2690    66.5440    65.8240 hc         1 HUP       0.058700
     33 H132         1.9110    66.3670    64.7290 hc         1 HUP       0.058700
     34 H151         2.4380    64.1090    63.6720 hc         1 HUP       0.043367
     35 H152         4.1370    63.7040    63.3600 hc         1 HUP       0.043367
     36 H153         3.5520    63.9380    65.0170 hc         1 HUP       0.043367
@<TRIPOS>BOND
     1     1     2 2   
     2     1     3 1   
     3     1     4 1   
     4     3     7 1   
     5     3    19 1   
     6     4     5 2   
     7     4    20 1   
     8     5     6 1   
     9     5    21 1   
    10     6     7 2   
    11     6    14 1   
    12     7     8 1   
    13     8     9 1   
    14     8    22 1   
    15     8    23 1   
    16     9    10 1   
    17     9    13 1   
    18     9    24 1   
    19    10    17 2   
    20    10    25 1   
    21    11    12 1   
    22    11    26 1   
    23    11    27 1   
    24    11    28 1   
    25    12    13 2   
    26    12    29 1   
    27    13    14 1   
    28    14    15 1   
    29    14    16 1   
    30    15    30 1   
    31    15    31 1   
    32    16    17 1   
    33    16    32 1   
    34    16    33 1   
    35    17    18 1   
    36    18    34 1   
    37    18    35 1   
    38    18    36 1   
@<TRIPOS>SUBSTRUCTURE
     1 HUP         1 TEMP              0 ****  ****    0 ROOT
