@<TRIPOS>MOLECULE
HUP
   36    38     1     0     0
SMALL
No Charge or Current Charge


@<TRIPOS>ATOM
      1 C1           0.9690    68.8170    60.5740 c          1 HUP       0.549200
      2 O1           0.4320    69.0030    59.4950 o          1 HUP      -0.577000
      3 N1           2.3210    68.6770    60.7020 ns         1 HUP      -0.365100
      4 C2           0.2440    68.7190    61.8440 cc         1 HUP      -0.331200
      5 C3           0.8660    68.5100    63.0630 cd         1 HUP      -0.063000
      6 C4           2.3090    68.3850    63.1020 cd         1 HUP      -0.183200
      7 C5           2.9920    68.4620    61.8920 cc         1 HUP       0.082400
      8 C6           4.4960    68.3230    61.7650 c6         1 HUP      -0.042200
      9 C7           5.0970    67.6940    63.0410 c6         1 HUP       0.027700
     10 C8           4.7450    66.2100    63.1260 c2         1 HUP      -0.233200
     11 C9           6.7090    69.7310    64.8300 c3         1 HUP      -0.054900
     12 C10          5.2600    69.3110    65.0110 c2         1 HUP      -0.208200
     13 C11          4.5430    68.4540    64.2440 c2         1 HUP      -0.147400
     14 C12          3.0510    68.1300    64.4170 c6         1 HUP       0.283600
     15 N2           2.4240    68.9620    65.4540 n8         1 HUP      -1.002200
     16 C13          2.9200    66.6290    64.8030 c6         1 HUP      -0.030200
     17 C14          3.7700    65.7190    63.9140 c2         1 HUP      -0.093400
     18 C15          3.4410    64.2420    64.0090 c3         1 HUP      -0.053900
     19 HN1          2.8450    68.7360    59.8390 hn         1 HUP       0.321500
     20 H2          -0.8320    68.8210    61.7670 ha         1 HUP       0.209000
     21 H3           0.2780    68.4400    63.9760 ha         1 HUP       0.202000
     22 H61          4.7700    67.7170    60.8900 hc         1 HUP       0.062700
     23 H62          4.9460    69.3120    61.6070 hc         1 HUP       0.062700
     24 H7           6.1910    67.7700    62.9960 hc         1 HUP       0.064700
     25 H8           5.3450    65.5430    62.5050 ha         1 HUP       0.175000
     26 H91          7.3680    69.1610    65.4960 hc         1 HUP       0.042367
     27 H92          7.0680    69.6000    63.8030 hc         1 HUP       0.042367
     28 H93          6.8350    70.7930    65.0720 hc         1 HUP       0.042367
     29 H10          4.7970    69.8240    65.8540 ha         1 HUP       0.161000
     30 HN21         2.9760    68.8610    66.3090 hn         1 HUP       0.404500
     31 HN22         2.5690    69.9390    65.1830 hn         1 HUP       0.404500
     32 H131         3.2250    66.4800    65.8480 hc         1 HUP       0.058700
     33 H132         1.8650    66.3280    64.7450 hc         1 HUP       0.058700
     34 H151         2.4060    64.0480    63.7030 hc         1 HUP       0.043367
     35 H152         4.0930    63.6390    63.3660 hc         1 HUP       0.043367
     36 H153         3.5610    63.8780    65.0360 hc         1 HUP       0.043367
@<TRIPOS>BOND
     1     1     2 2   
     2     1     3 1   
     3     1     4 1   
     4     3     7 1   
     5     3    19 1   
     6     4     5 2   
     7     4    20 1   
     8     5     6 1   
     9     5    21 1   
    10     6     7 2   
    11     6    14 1   
    12     7     8 1   
    13     8     9 1   
    14     8    22 1   
    15     8    23 1   
    16     9    10 1   
    17     9    13 1   
    18     9    24 1   
    19    10    17 2   
    20    10    25 1   
    21    11    12 1   
    22    11    26 1   
    23    11    27 1   
    24    11    28 1   
    25    12    13 2   
    26    12    29 1   
    27    13    14 1   
    28    14    15 1   
    29    14    16 1   
    30    15    30 1   
    31    15    31 1   
    32    16    17 1   
    33    16    32 1   
    34    16    33 1   
    35    17    18 1   
    36    18    34 1   
    37    18    35 1   
    38    18    36 1   
@<TRIPOS>SUBSTRUCTURE
     1 HUP         1 TEMP              0 ****  ****    0 ROOT
