@<TRIPOS>MOLECULE
HUQ
   72    74     1     0     0
SMALL
abcg2


@<TRIPOS>ATOM
      1 C01         -3.8110    -4.0600    -1.1480 c3         1 HUQ      -0.093100
      2 C02         -3.9470    -2.9200    -0.1510 c3         1 HUQ      -0.075400
      3 C03         -2.5910    -2.3960     0.3170 c3         1 HUQ      -0.094400
      4 C04         -2.8140    -1.2580     1.2920 c3         1 HUQ       0.091600
      5 C06         -2.0480     0.4300     2.8320 c3         1 HUQ       0.071900
      6 C07         -0.7050    -1.5550     2.4870 c3         1 HUQ       0.071900
      7 C08         -0.7920     0.1080     0.6800 c3         1 HUQ       0.029300
      8 C09          0.5980     0.5440     1.1650 c          1 HUQ       0.572100
      9 C11          2.9990     0.2920     0.7740 c3         1 HUQ       0.096000
     10 C12          3.8960    -0.5120    -0.1550 c3         1 HUQ      -0.095400
     11 C13          5.3940    -0.2700     0.0560 c3         1 HUQ      -0.050700
     12 C14          6.1660    -1.3920    -0.6410 c3         1 HUQ      -0.067900
     13 C15          7.6910    -1.3060    -0.6240 c3         1 HUQ      -0.068400
     14 C16          8.2520    -0.2040    -1.5220 c3         1 HUQ      -0.071900
     15 C17          8.3530     1.1780    -0.8740 c3         1 HUQ      -0.071900
     16 C18          7.2170     1.5370     0.0830 c3         1 HUQ      -0.068400
     17 C19          5.8120     1.1400    -0.3770 c3         1 HUQ      -0.067900
     18 C21         -1.4560     1.3240     0.0190 c3         1 HUQ      -0.003200
     19 C22         -2.6740     1.0540    -0.8060 cc         1 HUQ      -0.202400
     20 C23         -2.7420     0.2920    -1.9410 cd         1 HUQ      -0.142100
     21 C25         -4.8220     1.0070    -1.5920 ca         1 HUQ      -0.049200
     22 C26         -4.0030     1.5330    -0.5680 ca         1 HUQ      -0.104800
     23 C27         -4.5830     2.3480     0.4130 ca         1 HUQ      -0.089000
     24 C28         -5.9370     2.6100     0.3500 ca         1 HUQ      -0.113000
     25 C29         -6.7320     2.0750    -0.6780 ca         1 HUQ      -0.079000
     26 C30         -6.1890     1.2710    -1.6600 ca         1 HUQ      -0.113000
     27 N05         -1.5770    -0.5500     1.8070 n4         1 HUQ      -0.485000
     28 N10          1.6080    -0.0500     0.5330 ns         1 HUQ      -0.484900
     29 N24         -4.0230     0.2590    -2.4060 na         1 HUQ      -0.206700
     30 O20          0.7440     1.4080     2.0170 o          1 HUQ      -0.573100
     31 H1          -4.7890    -4.4190    -1.4690 hc         1 HUQ       0.045367
     32 H2          -3.2650    -3.7430    -2.0380 hc         1 HUQ       0.045367
     33 H3          -3.2740    -4.9050    -0.7140 hc         1 HUQ       0.045367
     34 H4          -4.5100    -2.1000    -0.6070 hc         1 HUQ       0.053200
     35 H5          -4.5300    -3.2520     0.7130 hc         1 HUQ       0.053200
     36 H6          -2.0280    -3.2080     0.7800 hc         1 HUQ       0.055200
     37 H7          -2.0280    -2.0680    -0.5600 hc         1 HUQ       0.055200
     38 H8          -3.4490    -0.4960     0.8470 hx         1 HUQ       0.101200
     39 H9          -3.3200    -1.6260     2.1850 hx         1 HUQ       0.101200
     40 H10         -2.5190    -0.1280     3.6360 hx         1 HUQ       0.097367
     41 H11         -1.2090     0.9980     3.2150 hx         1 HUQ       0.097367
     42 H12         -2.7810     1.0960     2.3900 hx         1 HUQ       0.097367
     43 H13         -0.2120    -2.1840     1.7520 hx         1 HUQ       0.097367
     44 H14          0.0370    -1.0460     3.0950 hx         1 HUQ       0.097367
     45 H15         -1.3250    -2.1720     3.1320 hx         1 HUQ       0.097367
     46 H16         -0.6700    -0.6770    -0.0640 hx         1 HUQ       0.085700
     47 H17          3.2530     0.0780     1.8150 h1         1 HUQ       0.067700
     48 H18          3.1310     1.3650     0.6230 h1         1 HUQ       0.067700
     49 H19          3.6860    -1.5740     0.0050 hc         1 HUQ       0.043200
     50 H20          3.6350    -0.2940    -1.1970 hc         1 HUQ       0.043200
     51 H21          5.5980    -0.3490     1.1330 hc         1 HUQ       0.048700
     52 H22          5.8620    -2.3380    -0.1830 hc         1 HUQ       0.035450
     53 H23          5.8410    -1.4490    -1.6870 hc         1 HUQ       0.035450
     54 H24          8.0550    -1.1910     0.4030 hc         1 HUQ       0.042200
     55 H25          8.0760    -2.2690    -0.9690 hc         1 HUQ       0.042200
     56 H26          9.2460    -0.4890    -1.8770 hc         1 HUQ       0.040950
     57 H27          7.6270    -0.1470    -2.4200 hc         1 HUQ       0.040950
     58 H28          9.2960     1.2520    -0.3250 hc         1 HUQ       0.040950
     59 H29          8.4100     1.9290    -1.6660 hc         1 HUQ       0.040950
     60 H30          7.4040     1.0820     1.0610 hc         1 HUQ       0.042200
     61 H31          7.2510     2.6160     0.2570 hc         1 HUQ       0.042200
     62 H32          5.7180     1.2410    -1.4650 hc         1 HUQ       0.035450
     63 H33          5.1040     1.8580     0.0450 hc         1 HUQ       0.035450
     64 H34         -1.6500     2.0990     0.7620 hc         1 HUQ       0.087200
     65 H35         -0.6780     1.7480    -0.6230 hc         1 HUQ       0.087200
     66 H36         -1.9580    -0.2360    -2.4610 h4         1 HUQ       0.214000
     67 H37         -3.9820     2.7780     1.2050 ha         1 HUQ       0.109000
     68 H38         -6.3970     3.2380     1.1020 ha         1 HUQ       0.126000
     69 H39         -7.7900     2.3010    -0.7010 ha         1 HUQ       0.129000
     70 H40         -6.8020     0.8600    -2.4520 ha         1 HUQ       0.129000
     71 H41          1.4130    -0.7570    -0.1590 hn         1 HUQ       0.318500
     72 H42         -4.3220    -0.2280    -3.2340 hn         1 HUQ       0.366000
@<TRIPOS>BOND
     1     1     2 1   
     2     1    31 1   
     3     1    32 1   
     4     1    33 1   
     5     2     3 1   
     6     2    34 1   
     7     2    35 1   
     8     3     4 1   
     9     3    36 1   
    10     3    37 1   
    11     4    27 1   
    12     4    38 1   
    13     4    39 1   
    14     5    27 1   
    15     5    40 1   
    16     5    41 1   
    17     5    42 1   
    18     6    27 1   
    19     6    43 1   
    20     6    44 1   
    21     6    45 1   
    22     7     8 1   
    23     7    18 1   
    24     7    27 1   
    25     7    46 1   
    26     8    28 1   
    27     8    30 2   
    28     9    10 1   
    29     9    28 1   
    30     9    47 1   
    31     9    48 1   
    32    10    11 1   
    33    10    49 1   
    34    10    50 1   
    35    11    12 1   
    36    11    17 1   
    37    11    51 1   
    38    12    13 1   
    39    12    52 1   
    40    12    53 1   
    41    13    14 1   
    42    13    54 1   
    43    13    55 1   
    44    14    15 1   
    45    14    56 1   
    46    14    57 1   
    47    15    16 1   
    48    15    58 1   
    49    15    59 1   
    50    16    17 1   
    51    16    60 1   
    52    16    61 1   
    53    17    62 1   
    54    17    63 1   
    55    18    19 1   
    56    18    64 1   
    57    18    65 1   
    58    19    20 2   
    59    19    22 1   
    60    20    29 1   
    61    20    66 1   
    62    21    22 ar  
    63    21    26 ar  
    64    21    29 1   
    65    22    23 ar  
    66    23    24 ar  
    67    23    67 1   
    68    24    25 ar  
    69    24    68 1   
    70    25    26 ar  
    71    25    69 1   
    72    26    70 1   
    73    28    71 1   
    74    29    72 1   
@<TRIPOS>SUBSTRUCTURE
     1 HUQ         1 TEMP              0 ****  ****    0 ROOT
