@<TRIPOS>MOLECULE
HUQ
   72    74     1     0     0
SMALL
No Charge or Current Charge


@<TRIPOS>ATOM
      1 C01         -4.1020    -3.1670    -2.4090 c3         1 HUQ      -0.093100
      2 C02         -3.9620    -2.5980    -0.9840 c3         1 HUQ      -0.075400
      3 C03         -2.5540    -2.0410    -0.6930 c3         1 HUQ      -0.094400
      4 C04         -2.4550    -1.4220     0.7170 c3         1 HUQ       0.091600
      5 C06         -1.2520    -0.2810     2.5790 c3         1 HUQ       0.071900
      6 C07         -0.0060    -1.8020     1.0570 c3         1 HUQ       0.071900
      7 C08         -0.7780     0.4620     0.1900 c3         1 HUQ       0.029300
      8 C09          0.6730     0.9910     0.3400 c          1 HUQ       0.572100
      9 C11          2.9460     0.9850    -0.7430 c3         1 HUQ       0.096000
     10 C12          3.7700    -0.0250     0.0880 c3         1 HUQ      -0.095400
     11 C13          5.2850     0.3070     0.2200 c3         1 HUQ      -0.050700
     12 C14          5.9170    -0.6050     1.3100 c3         1 HUQ      -0.067900
     13 C15          7.4270    -0.4210     1.5910 c3         1 HUQ      -0.068400
     14 C16          8.3370    -0.9810     0.4750 c3         1 HUQ      -0.071900
     15 C17          8.5970    -0.0340    -0.7180 c3         1 HUQ      -0.071900
     16 C18          7.4330     0.8890    -1.1440 c3         1 HUQ      -0.068400
     17 C19          6.0230     0.2520    -1.1520 c3         1 HUQ      -0.067900
     18 C21         -1.7380     1.6900     0.1850 c3         1 HUQ      -0.003200
     19 C22         -3.0870     1.4360    -0.4400 cc         1 HUQ      -0.202400
     20 C23         -3.3640     1.2930    -1.7960 cd         1 HUQ      -0.142100
     21 C25         -5.3020     1.0550    -0.7120 ca         1 HUQ      -0.049200
     22 C26         -4.3470     1.2960     0.2360 ca         1 HUQ      -0.104800
     23 C27         -4.6600     1.3540     1.6020 ca         1 HUQ      -0.089000
     24 C28         -6.0030     1.1500     1.9820 ca         1 HUQ      -0.113000
     25 C29         -6.9920     0.8960     1.0030 ca         1 HUQ      -0.079000
     26 C30         -6.6440     0.8480    -0.3640 ca         1 HUQ      -0.113000
     27 N05         -1.1310    -0.7510     1.1210 n4         1 HUQ      -0.485000
     28 N10          1.5150     0.6740    -0.7060 ns         1 HUQ      -0.484900
     29 N24         -4.7460     1.0480    -1.9770 na         1 HUQ      -0.206700
     30 O20          1.0560     1.6220     1.3160 o          1 HUQ      -0.573100
     31 H1          -5.1160    -3.5520    -2.5690 hc         1 HUQ       0.045367
     32 H2          -3.9080    -2.3900    -3.1580 hc         1 HUQ       0.045367
     33 H3          -3.3930    -3.9890    -2.5700 hc         1 HUQ       0.045367
     34 H4          -4.7040    -1.8020    -0.8450 hc         1 HUQ       0.053200
     35 H5          -4.2000    -3.3850    -0.2580 hc         1 HUQ       0.053200
     36 H6          -1.8190    -2.8480    -0.7940 hc         1 HUQ       0.055200
     37 H7          -2.3060    -1.2840    -1.4450 hc         1 HUQ       0.055200
     38 H8          -3.2440    -0.6790     0.8230 hx         1 HUQ       0.101200
     39 H9          -2.6560    -2.2100     1.4470 hx         1 HUQ       0.101200
     40 H10         -1.4570    -1.1400     3.2200 hx         1 HUQ       0.097367
     41 H11         -0.3160     0.1910     2.8870 hx         1 HUQ       0.097367
     42 H12         -2.0690     0.4380     2.6600 hx         1 HUQ       0.097367
     43 H13          0.1240    -2.1310     0.0240 hx         1 HUQ       0.097367
     44 H14          0.9250    -1.3640     1.4220 hx         1 HUQ       0.097367
     45 H15         -0.2760    -2.6560     1.6820 hx         1 HUQ       0.097367
     46 H16         -0.8070     0.0590    -0.8220 hx         1 HUQ       0.085700
     47 H17          3.1030     2.0010    -0.3550 h1         1 HUQ       0.067700
     48 H18          3.2700     0.9700    -1.7910 h1         1 HUQ       0.067700
     49 H19          3.3340    -0.0710     1.0940 hc         1 HUQ       0.043200
     50 H20          3.6530    -1.0260    -0.3460 hc         1 HUQ       0.043200
     51 H21          5.3510     1.3380     0.5890 hc         1 HUQ       0.048700
     52 H22          5.3840    -0.4270     2.2530 hc         1 HUQ       0.035450
     53 H23          5.7290    -1.6550     1.0550 hc         1 HUQ       0.035450
     54 H24          7.6580     0.6340     1.7850 hc         1 HUQ       0.042200
     55 H25          7.6610    -0.9610     2.5170 hc         1 HUQ       0.042200
     56 H26          9.3070    -1.2480     0.9120 hc         1 HUQ       0.040950
     57 H27          7.9100    -1.9200     0.1020 hc         1 HUQ       0.040950
     58 H28          9.4600     0.6000    -0.4820 hc         1 HUQ       0.040950
     59 H29          8.8980    -0.6450    -1.5790 hc         1 HUQ       0.040950
     60 H30          7.4230     1.7790    -0.5030 hc         1 HUQ       0.042200
     61 H31          7.6540     1.2570    -2.1540 hc         1 HUQ       0.042200
     62 H32          6.0760    -0.7820    -1.5150 hc         1 HUQ       0.035450
     63 H33          5.4380     0.8040    -1.8950 hc         1 HUQ       0.035450
     64 H34         -1.8490     2.0770     1.2030 hc         1 HUQ       0.087200
     65 H35         -1.2610     2.5010    -0.3800 hc         1 HUQ       0.087200
     66 H36         -2.6810     1.3380    -2.6410 h4         1 HUQ       0.214000
     67 H37         -3.8960     1.5490     2.3490 ha         1 HUQ       0.109000
     68 H38         -6.2790     1.1870     3.0340 ha         1 HUQ       0.126000
     69 H39         -8.0260     0.7390     1.3040 ha         1 HUQ       0.129000
     70 H40         -7.3970     0.6550    -1.1240 ha         1 HUQ       0.129000
     71 H41          1.1170     0.1520    -1.4790 hn         1 HUQ       0.318500
     72 H42         -5.2320     0.9040    -2.8570 hn         1 HUQ       0.366000
@<TRIPOS>BOND
     1     1     2 1   
     2     1    31 1   
     3     1    32 1   
     4     1    33 1   
     5     2     3 1   
     6     2    34 1   
     7     2    35 1   
     8     3     4 1   
     9     3    36 1   
    10     3    37 1   
    11     4    27 1   
    12     4    38 1   
    13     4    39 1   
    14     5    27 1   
    15     5    40 1   
    16     5    41 1   
    17     5    42 1   
    18     6    27 1   
    19     6    43 1   
    20     6    44 1   
    21     6    45 1   
    22     7     8 1   
    23     7    18 1   
    24     7    27 1   
    25     7    46 1   
    26     8    28 1   
    27     8    30 2   
    28     9    10 1   
    29     9    28 1   
    30     9    47 1   
    31     9    48 1   
    32    10    11 1   
    33    10    49 1   
    34    10    50 1   
    35    11    12 1   
    36    11    17 1   
    37    11    51 1   
    38    12    13 1   
    39    12    52 1   
    40    12    53 1   
    41    13    14 1   
    42    13    54 1   
    43    13    55 1   
    44    14    15 1   
    45    14    56 1   
    46    14    57 1   
    47    15    16 1   
    48    15    58 1   
    49    15    59 1   
    50    16    17 1   
    51    16    60 1   
    52    16    61 1   
    53    17    62 1   
    54    17    63 1   
    55    18    19 1   
    56    18    64 1   
    57    18    65 1   
    58    19    20 2   
    59    19    22 1   
    60    20    29 1   
    61    20    66 1   
    62    21    22 ar  
    63    21    26 ar  
    64    21    29 1   
    65    22    23 ar  
    66    23    24 ar  
    67    23    67 1   
    68    24    25 ar  
    69    24    68 1   
    70    25    26 ar  
    71    25    69 1   
    72    26    70 1   
    73    28    71 1   
    74    29    72 1   
@<TRIPOS>SUBSTRUCTURE
     1 HUQ         1 TEMP              0 ****  ****    0 ROOT
