@<TRIPOS>MOLECULE
HUR
   74    78     1     0     0
SMALL
bcc


@<TRIPOS>ATOM
      1 C1          11.6740    -8.3060    25.1110 ca         1 HUR      -0.262000
      2 C10          9.8120    -3.1950    22.4830 c          1 HUR       0.703300
      3 C11          9.6490    -0.7810    22.6080 c3         1 HUR       0.042700
      4 C12         10.3510    -0.4750    21.2840 c          1 HUR       0.671100
      5 C13         10.0410     0.6420    19.1100 c3         1 HUR       0.033700
      6 C14          9.4260    -0.1220    17.9410 c3         1 HUR      -0.068400
      7 C15          9.8000    -1.5950    17.9540 c5         1 HUR      -0.159700
      8 C16         11.2750    -1.9080    17.6970 c5         1 HUR      -0.093400
      9 C17         11.2470    -3.2860    17.0340 c5         1 HUR       0.102000
     10 C18          9.0810    -2.3880    16.8700 c          1 HUR       0.706500
     11 C19          9.7550     2.1360    19.0190 c          1 HUR       0.497800
     12 C2          11.2550    -8.8090    23.8630 ca         1 HUR      -0.060000
     13 C20         10.2540     3.0080    20.1110 cc         1 HUR       0.286200
     14 C21         11.3160     3.7040    21.8910 ca         1 HUR       0.076400
     15 C22         10.6630     4.9040    21.5520 ca         1 HUR      -0.067100
     16 C23         12.1310     3.6470    23.0250 ca         1 HUR      -0.066000
     17 C24         12.2750     4.7840    23.7890 ca         1 HUR      -0.134000
     18 C25         11.6230     5.9760    23.4400 ca         1 HUR      -0.108000
     19 C26         10.8130     6.0530    22.3240 ca         1 HUR      -0.094000
     20 C27          9.9710     0.3430    23.5950 c3         1 HUR      -0.087400
     21 C28          9.3020     0.2280    24.9670 c3         1 HUR      -0.059700
     22 C29          9.7430     1.4040    25.8340 c3         1 HUR      -0.090600
     23 C3          10.7380    -8.0060    22.8740 ca         1 HUR      -0.186000
     24 C30          7.7830     0.1720    24.8630 c3         1 HUR      -0.090600
     25 C4          10.6430    -6.6390    23.1660 ca         1 HUR      -0.004200
     26 C5          11.0550    -6.1000    24.4000 ca         1 HUR      -0.144800
     27 C6          11.5770    -6.9560    25.3910 ca         1 HUR       0.199100
     28 C7          10.2840    -4.4390    23.1120 cc         1 HUR      -0.158300
     29 C8          10.8200    -4.6990    24.3480 cd         1 HUR      -0.114200
     30 C9          12.4770    -7.1790    27.5680 c3         1 HUR       0.123700
     31 N1          10.1790    -5.6110    22.4120 na         1 HUR      -0.133400
     32 N2          10.0810    -2.0500    23.1330 ns         1 HUR      -0.542900
     33 N3           9.5710     0.1520    20.3820 ns         1 HUR      -0.561900
     34 N4           9.9510    -3.2910    16.3890 ns         1 HUR      -0.582900
     35 N5          11.0600     2.6570    21.0490 nd         1 HUR      -0.490100
     36 O1          11.9410    -6.3680    26.5420 os         1 HUR      -0.311900
     37 O2           9.1930    -3.2250    21.4250 o          1 HUR      -0.627100
     38 O3          11.5270    -0.7370    21.1090 o          1 HUR      -0.590100
     39 O5           7.9230    -2.2420    16.5170 o          1 HUR      -0.632500
     40 S1           9.7220     4.6670    20.1260 ss         1 HUR      -0.008100
     41 H1          12.0680    -9.0010    25.8390 ha         1 HUR       0.134000
     42 H2           8.5690    -0.8150    22.4420 h1         1 HUR       0.072700
     43 H3          11.1300     0.5290    19.1030 h1         1 HUR       0.111700
     44 H4           9.7600     0.3250    17.0010 hc         1 HUR       0.069700
     45 H5           8.3390    -0.0210    17.9740 hc         1 HUR       0.069700
     46 H6           9.4910    -2.0460    18.9060 hc         1 HUR       0.097700
     47 H7          11.8800    -1.8970    18.6010 hc         1 HUR       0.063700
     48 H8          11.6940    -1.1730    17.0050 hc         1 HUR       0.063700
     49 H9          11.3260    -4.0910    17.7720 h1         1 HUR       0.043700
     50 H10         12.0480    -3.4200    16.3080 h1         1 HUR       0.043700
     51 H11         11.3480    -9.8730    23.6860 ha         1 HUR       0.128000
     52 H12         12.6270     2.7220    23.2870 ha         1 HUR       0.153000
     53 H13         12.8990     4.7610    24.6730 ha         1 HUR       0.138000
     54 H14         11.7550     6.8540    24.0590 ha         1 HUR       0.136000
     55 H15         10.3110     6.9750    22.0630 ha         1 HUR       0.146000
     56 H16         11.0570     0.4000    23.7220 hc         1 HUR       0.061200
     57 H17          9.6660     1.2880    23.1360 hc         1 HUR       0.061200
     58 H18          9.6450    -0.6900    25.4560 hc         1 HUR       0.045700
     59 H19          9.3100     1.3400    26.8330 hc         1 HUR       0.035867
     60 H20         10.8290     1.4360    25.9430 hc         1 HUR       0.035867
     61 H21          9.4260     2.3530    25.3940 hc         1 HUR       0.035867
     62 H22         10.4190    -8.4080    21.9220 ha         1 HUR       0.138000
     63 H23          7.3270     0.1640    25.8540 hc         1 HUR       0.035867
     64 H24          7.3970     1.0430    24.3260 hc         1 HUR       0.035867
     65 H25          7.4350    -0.7210    24.3420 hc         1 HUR       0.035867
     66 H26         11.0090    -3.9840    25.1330 ha         1 HUR       0.158000
     67 H27         12.7060    -6.5170    28.3990 h1         1 HUR       0.041700
     68 H28         11.7640    -7.9350    27.9050 h1         1 HUR       0.041700
     69 H29         13.3970    -7.6790    27.2520 h1         1 HUR       0.041700
     70 H30          9.8110    -5.6820    21.4760 hn         1 HUR       0.320700
     71 H31         10.7150    -2.0550    23.9160 hn         1 HUR       0.332500
     72 H32          8.5860     0.2440    20.5790 hn         1 HUR       0.319500
     73 H33          9.6700    -4.0100    15.7400 hn         1 HUR       0.324500
     74 O4           9.1400     2.6430    18.1130 o          1 HUR      -0.488100
@<TRIPOS>BOND
     1     1    12 ar  
     2     1    27 ar  
     3     1    41 1   
     4     2    28 1   
     5     2    32 1   
     6     2    37 2   
     7     3     4 1   
     8     3    20 1   
     9     3    32 1   
    10     3    42 1   
    11     4    33 1   
    12     4    38 2   
    13     5     6 1   
    14     5    11 1   
    15     5    33 1   
    16     5    43 1   
    17     6     7 1   
    18     6    44 1   
    19     6    45 1   
    20     7     8 1   
    21     7    10 1   
    22     7    46 1   
    23     8     9 1   
    24     8    47 1   
    25     8    48 1   
    26     9    34 1   
    27     9    49 1   
    28     9    50 1   
    29    10    34 1   
    30    10    39 2   
    31    11    13 1   
    32    11    74 2   
    33    12    23 ar  
    34    12    51 1   
    35    13    35 2   
    36    13    40 1   
    37    14    15 ar  
    38    14    16 ar  
    39    14    35 1   
    40    15    19 ar  
    41    15    40 1   
    42    16    17 ar  
    43    16    52 1   
    44    17    18 ar  
    45    17    53 1   
    46    18    19 ar  
    47    18    54 1   
    48    19    55 1   
    49    20    21 1   
    50    20    56 1   
    51    20    57 1   
    52    21    22 1   
    53    21    24 1   
    54    21    58 1   
    55    22    59 1   
    56    22    60 1   
    57    22    61 1   
    58    23    25 ar  
    59    23    62 1   
    60    24    63 1   
    61    24    64 1   
    62    24    65 1   
    63    25    26 ar  
    64    25    31 1   
    65    26    27 ar  
    66    26    29 1   
    67    27    36 1   
    68    28    29 2   
    69    28    31 1   
    70    29    66 1   
    71    30    36 1   
    72    30    67 1   
    73    30    68 1   
    74    30    69 1   
    75    31    70 1   
    76    32    71 1   
    77    33    72 1   
    78    34    73 1   
@<TRIPOS>SUBSTRUCTURE
     1 HUR         1 TEMP              0 ****  ****    0 ROOT
