@<TRIPOS>MOLECULE
HUR
   74    78     1     0     0
SMALL
No Charge or Current Charge


@<TRIPOS>ATOM
      1 C1          12.4170    -7.8570    25.6030 ca         1 HUR      -0.244000
      2 C10          8.7160    -3.5730    23.1780 c          1 HUR       0.636300
      3 C11          8.9810    -1.2070    22.2880 c3         1 HUR       0.042700
      4 C12          9.9540    -0.7210    21.1770 c          1 HUR       0.604100
      5 C13         10.1800     0.8940    19.2280 c3         1 HUR       0.033700
      6 C14          9.7800     0.3040    17.8470 c3         1 HUR      -0.068400
      7 C15         10.1670    -1.1860    17.6250 c5         1 HUR      -0.159700
      8 C16         11.6950    -1.4730    17.5850 c5         1 HUR      -0.093400
      9 C17         11.7300    -2.8430    16.8550 c5         1 HUR       0.102000
     10 C18          9.6860    -1.7600    16.2860 c          1 HUR       0.564000
     11 C19          9.9640     2.4360    19.3240 c          1 HUR       0.497800
     12 C2          11.2120    -8.6000    25.6680 ca         1 HUR      -0.042000
     13 C20         10.6670     3.1510    20.4310 cc         1 HUR       0.286200
     14 C21         11.9010     3.5250    22.2280 ca         1 HUR       0.076400
     15 C22         11.4530     4.8090    21.9970 ca         1 HUR      -0.194000
     16 C23         12.7470     3.2630    23.3180 ca         1 HUR      -0.048000
     17 C24         13.1290     4.3210    24.1670 ca         1 HUR      -0.116000
     18 C25         12.6650     5.6310    23.9210 ca         1 HUR      -0.090000
     19 C26         11.8180     5.8830    22.8250 ca         1 HUR      -0.076000
     20 C27          8.8110    -0.1130    23.3830 c3         1 HUR      -0.087400
     21 C28          7.7140    -0.3790    24.4510 c3         1 HUR      -0.059700
     22 C29          7.8070     0.6490    25.6020 c3         1 HUR      -0.090600
     23 C3          10.0000    -8.0400    25.2100 ca         1 HUR      -0.168000
     24 C30          6.2880    -0.3900    23.8490 c3         1 HUR      -0.090600
     25 C4          10.0320    -6.7390    24.6960 ca         1 HUR      -0.004200
     26 C5          11.1940    -6.0240    24.6340 ca         1 HUR      -0.144800
     27 C6          12.4190    -6.5410    25.0770 ca         1 HUR       0.199100
     28 C7           9.4720    -4.7060    23.7750 cc         1 HUR      -0.158300
     29 C8          10.8390    -4.7510    24.0570 cd         1 HUR      -0.164200
     30 C9          14.8390    -6.2380    25.4230 c3         1 HUR       0.146900
     31 N1           8.9940    -5.9730    24.1900 na         1 HUR      -0.183700
     32 N2           9.4810    -2.4700    22.8770 ns         1 HUR      -0.475900
     33 N3           9.4320     0.2320    20.3230 ns         1 HUR      -0.494900
     34 N4          10.6380    -2.6640    15.9010 ns         1 HUR      -0.515900
     35 N5          11.4660     2.5530    21.3390 nd         1 HUR      -0.490100
     36 O1          13.5540    -5.7620    24.9850 os         1 HUR      -0.335100
     37 O2           7.5120    -3.6170    22.9640 o          1 HUR      -0.627100
     38 O3          11.0980    -1.1400    21.0620 o          1 HUR      -0.590100
     39 O5           8.7920    -1.3760    15.5500 o          1 HUR      -0.557000
     40 S1          10.4150     4.9080    20.5850 ss         1 HUR       0.118800
     41 H1          13.3320    -8.3180    25.9640 ha         1 HUR       0.116000
     42 H2           8.0180    -1.3910    21.7970 h1         1 HUR       0.072700
     43 H3          11.2560     0.7310    19.3740 h1         1 HUR       0.111700
     44 H4          10.2420     0.9110    17.0580 hc         1 HUR       0.069700
     45 H5           8.6950     0.4210    17.7190 hc         1 HUR       0.069700
     46 H6           9.7200    -1.8070    18.4100 hc         1 HUR       0.097700
     47 H7          12.1600    -1.5140    18.5760 hc         1 HUR       0.063700
     48 H8          12.2290    -0.7120    17.0020 hc         1 HUR       0.063700
     49 H9          11.5250    -3.6720    17.5450 h1         1 HUR       0.043700
     50 H10         12.6970    -3.0260    16.3670 h1         1 HUR       0.043700
     51 H11         11.2200    -9.6100    26.0730 ha         1 HUR       0.110000
     52 H12         13.1010     2.2520    23.5040 ha         1 HUR       0.135000
     53 H13         13.7830     4.1270    25.0140 ha         1 HUR       0.120000
     54 H14         12.9610     6.4460    24.5770 ha         1 HUR       0.118000
     55 H15         11.4550     6.8900    22.6260 ha         1 HUR       0.128000
     56 H16          9.7780     0.0160    23.8860 hc         1 HUR       0.061200
     57 H17          8.5940     0.8490    22.9010 hc         1 HUR       0.061200
     58 H18          7.8970    -1.3660    24.8930 hc         1 HUR       0.045700
     59 H19          7.0610     0.4330    26.3760 hc         1 HUR       0.035867
     60 H20          8.7970     0.6170    26.0730 hc         1 HUR       0.035867
     61 H21          7.6350     1.6670    25.2330 hc         1 HUR       0.035867
     62 H22          9.0710    -8.6040    25.2560 ha         1 HUR       0.120000
     63 H23          5.5410    -0.5720    24.6310 hc         1 HUR       0.035867
     64 H24          6.0570     0.5720    23.3750 hc         1 HUR       0.035867
     65 H25          6.1770    -1.1780    23.0970 hc         1 HUR       0.035867
     66 H26         11.5520    -3.9510    23.8760 ha         1 HUR       0.208000
     67 H27         15.6040    -5.4680    25.2620 h1         1 HUR       0.041700
     68 H28         14.8200    -6.4810    26.4930 h1         1 HUR       0.041700
     69 H29         15.1340    -7.1330    24.8620 h1         1 HUR       0.041700
     70 H30          8.0280    -6.2770    24.1260 hn         1 HUR       0.371000
     71 H31         10.4750    -2.5520    23.0440 hn         1 HUR       0.332500
     72 H32          8.4650     0.4990    20.4800 hn         1 HUR       0.319500
     73 H33         10.5590    -3.1040    14.9920 hn         1 HUR       0.324500
     74 O4           9.2370     3.0200    18.5220 o          1 HUR      -0.488100
@<TRIPOS>BOND
     1     1    12 ar  
     2     1    27 ar  
     3     1    41 1   
     4     2    28 1   
     5     2    32 1   
     6     2    37 2   
     7     3     4 1   
     8     3    20 1   
     9     3    32 1   
    10     3    42 1   
    11     4    33 1   
    12     4    38 2   
    13     5     6 1   
    14     5    11 1   
    15     5    33 1   
    16     5    43 1   
    17     6     7 1   
    18     6    44 1   
    19     6    45 1   
    20     7     8 1   
    21     7    10 1   
    22     7    46 1   
    23     8     9 1   
    24     8    47 1   
    25     8    48 1   
    26     9    34 1   
    27     9    49 1   
    28     9    50 1   
    29    10    34 1   
    30    10    39 2   
    31    11    13 1   
    32    11    74 2   
    33    12    23 ar  
    34    12    51 1   
    35    13    35 2   
    36    13    40 1   
    37    14    15 ar  
    38    14    16 ar  
    39    14    35 1   
    40    15    19 ar  
    41    15    40 1   
    42    16    17 ar  
    43    16    52 1   
    44    17    18 ar  
    45    17    53 1   
    46    18    19 ar  
    47    18    54 1   
    48    19    55 1   
    49    20    21 1   
    50    20    56 1   
    51    20    57 1   
    52    21    22 1   
    53    21    24 1   
    54    21    58 1   
    55    22    59 1   
    56    22    60 1   
    57    22    61 1   
    58    23    25 ar  
    59    23    62 1   
    60    24    63 1   
    61    24    64 1   
    62    24    65 1   
    63    25    26 ar  
    64    25    31 1   
    65    26    27 ar  
    66    26    29 1   
    67    27    36 1   
    68    28    29 2   
    69    28    31 1   
    70    29    66 1   
    71    30    36 1   
    72    30    67 1   
    73    30    68 1   
    74    30    69 1   
    75    31    70 1   
    76    32    71 1   
    77    33    72 1   
    78    34    73 1   
@<TRIPOS>SUBSTRUCTURE
     1 HUR         1 TEMP              0 ****  ****    0 ROOT
