@<TRIPOS>MOLECULE
HUT
   68    70     1     0     0
SMALL
bcc


@<TRIPOS>ATOM
      1 C01          5.3750    -5.2880     0.6700 c3         1 HUT      -0.088100
      2 C02          4.1050    -4.5070     0.9780 c3         1 HUT      -0.073400
      3 C03          3.9360    -3.2850     0.0840 c3         1 HUT      -0.081400
      4 C04          2.6560    -2.5150     0.3680 c3         1 HUT       0.164800
      5 C06          1.4310    -0.4930    -0.2280 c3         1 HUT       0.111500
      6 C07          1.6340     0.9000    -0.8500 c3         1 HUT       0.010800
      7 C08          2.6160     1.7550    -0.1180 cc         1 HUT      -0.128400
      8 C09          2.2920     2.7860     0.7200 cd         1 HUT      -0.121100
      9 C11          4.5170     2.7450     0.6940 ca         1 HUT      -0.050200
     10 C12          4.0510     1.7090    -0.1480 ca         1 HUT      -0.078800
     11 C13          4.9900     0.9080    -0.8090 ca         1 HUT      -0.059000
     12 C14          6.3350     1.1570    -0.6260 ca         1 HUT      -0.168000
     13 C15          6.7750     2.1930     0.2160 ca         1 HUT      -0.108000
     14 C16          5.8750     2.9980     0.8870 ca         1 HUT      -0.154000
     15 C17          0.1760    -1.1130    -0.8510 c          1 HUT       0.622100
     16 C19         -2.2610    -1.3790    -0.6120 c3         1 HUT       0.099000
     17 C20         -3.3620    -0.5530     0.0340 c3         1 HUT      -0.094400
     18 C21         -4.7440    -0.9980    -0.4280 c3         1 HUT      -0.074400
     19 C22         -5.8950    -0.1410     0.1120 c3         1 HUT      -0.052700
     20 C23         -7.2230    -0.8730    -0.1180 c3         1 HUT      -0.068900
     21 C24         -8.4520    -0.3130     0.5900 c3         1 HUT      -0.068400
     22 C25         -8.7580     1.1680     0.3760 c3         1 HUT      -0.069400
     23 C26         -7.7490     2.0940     1.0550 c3         1 HUT      -0.069400
     24 C27         -6.4830     2.3940     0.2510 c3         1 HUT      -0.068400
     25 C28         -5.9060     1.2370    -0.5650 c3         1 HUT      -0.068900
     26 N05          2.6070    -1.2980    -0.4180 n7         1 HUT      -0.801200
     27 N10          3.4230     3.3750     1.2110 na         1 HUT      -0.174400
     28 N18         -0.9550    -0.9540    -0.1530 ns         1 HUT      -0.570900
     29 O29          0.2200    -1.6670    -1.9430 o          1 HUT      -0.612100
     30 H1           5.3680    -5.6640    -0.3550 hc         1 HUT       0.032033
     31 H2           6.2610    -4.6610     0.7830 hc         1 HUT       0.032033
     32 H3           5.4890    -6.1450     1.3350 hc         1 HUT       0.032033
     33 H4           3.2360    -5.1630     0.8710 hc         1 HUT       0.036200
     34 H5           4.1160    -4.1870     2.0250 hc         1 HUT       0.036200
     35 H6           4.7880    -2.6110     0.2110 hc         1 HUT       0.047200
     36 H7           3.9450    -3.5990    -0.9660 hc         1 HUT       0.047200
     37 H8           1.7920    -3.1800     0.2050 h1         1 HUT       0.028700
     38 H9           2.6280    -2.2350     1.4260 h1         1 HUT       0.028700
     39 H10          1.2770    -0.3640     0.8490 h1         1 HUT       0.062700
     40 H11          1.9410     0.7710    -1.8930 hc         1 HUT       0.052700
     41 H12          0.6730     1.4200    -0.8790 hc         1 HUT       0.052700
     42 H13          1.3170     3.1540     0.9990 h4         1 HUT       0.155000
     43 H14          4.6620     0.0890    -1.4350 ha         1 HUT       0.140000
     44 H15          7.0670     0.5420    -1.1330 ha         1 HUT       0.127000
     45 H16          7.8360     2.3630     0.3420 ha         1 HUT       0.125000
     46 H17          6.2130     3.7970     1.5350 ha         1 HUT       0.128000
     47 H18         -2.4140    -2.4420    -0.3980 h1         1 HUT       0.052700
     48 H19         -2.3040    -1.2660    -1.6970 h1         1 HUT       0.052700
     49 H20         -3.3000    -0.6410     1.1240 hc         1 HUT       0.042700
     50 H21         -3.1980     0.5010    -0.2050 hc         1 HUT       0.042700
     51 H22         -4.7850    -0.9940    -1.5240 hc         1 HUT       0.041700
     52 H23         -4.8940    -2.0390    -0.1240 hc         1 HUT       0.041700
     53 H24         -5.7410    -0.0190     1.1930 hc         1 HUT       0.048700
     54 H25         -7.4090    -0.9020    -1.1990 hc         1 HUT       0.036200
     55 H26         -7.1090    -1.9170     0.1920 hc         1 HUT       0.036200
     56 H27         -9.3170    -0.9040     0.2740 hc         1 HUT       0.034200
     57 H28         -8.3510    -0.4850     1.6670 hc         1 HUT       0.034200
     58 H29         -8.8360     1.3960    -0.6930 hc         1 HUT       0.036200
     59 H30         -9.7480     1.3680     0.7930 hc         1 HUT       0.036200
     60 H31         -8.2280     3.0460     1.3000 hc         1 HUT       0.036200
     61 H32         -7.4770     1.6510     2.0180 hc         1 HUT       0.036200
     62 H33         -6.6820     3.2200    -0.4390 hc         1 HUT       0.034200
     63 H34         -5.7180     2.7650     0.9400 hc         1 HUT       0.034200
     64 H35         -4.8920     1.5240    -0.8560 hc         1 HUT       0.036200
     65 H36         -6.4540     1.1390    -1.5080 hc         1 HUT       0.036200
     66 H37          2.7020    -1.5230    -1.4020 hn         1 HUT       0.374800
     67 H39          3.4390     4.1640     1.8340 hn         1 HUT       0.297700
     68 H40         -0.8960    -0.5460     0.7670 hn         1 HUT       0.310500
@<TRIPOS>BOND
     1     1     2 1   
     2     1    30 1   
     3     1    31 1   
     4     1    32 1   
     5     2     3 1   
     6     2    33 1   
     7     2    34 1   
     8     3     4 1   
     9     3    35 1   
    10     3    36 1   
    11     4    26 1   
    12     4    37 1   
    13     4    38 1   
    14     5     6 1   
    15     5    15 1   
    16     5    26 1   
    17     5    39 1   
    18     6     7 1   
    19     6    40 1   
    20     6    41 1   
    21     7     8 2   
    22     7    10 1   
    23     8    27 1   
    24     8    42 1   
    25     9    10 ar  
    26     9    14 ar  
    27     9    27 1   
    28    10    11 ar  
    29    11    12 ar  
    30    11    43 1   
    31    12    13 ar  
    32    12    44 1   
    33    13    14 ar  
    34    13    45 1   
    35    14    46 1   
    36    15    28 1   
    37    15    29 2   
    38    16    17 1   
    39    16    28 1   
    40    16    47 1   
    41    16    48 1   
    42    17    18 1   
    43    17    49 1   
    44    17    50 1   
    45    18    19 1   
    46    18    51 1   
    47    18    52 1   
    48    19    20 1   
    49    19    25 1   
    50    19    53 1   
    51    20    21 1   
    52    20    54 1   
    53    20    55 1   
    54    21    22 1   
    55    21    56 1   
    56    21    57 1   
    57    22    23 1   
    58    22    58 1   
    59    22    59 1   
    60    23    24 1   
    61    23    60 1   
    62    23    61 1   
    63    24    25 1   
    64    24    62 1   
    65    24    63 1   
    66    25    64 1   
    67    25    65 1   
    68    26    66 1   
    69    27    67 1   
    70    28    68 1   
@<TRIPOS>SUBSTRUCTURE
     1 HUT         1 TEMP              0 ****  ****    0 ROOT
