@<TRIPOS>MOLECULE
HUT
   68    70     1     0     0
SMALL
No Charge or Current Charge


@<TRIPOS>ATOM
      1 C01          5.2640    -5.3600    -0.4590 c3         1 HUT      -0.088100
      2 C02          4.0320    -4.6630     0.1520 c3         1 HUT      -0.073400
      3 C03          3.8280    -3.2250    -0.3730 c3         1 HUT      -0.081400
      4 C04          2.5970    -2.5310     0.2410 c3         1 HUT       0.164800
      5 C06          1.3360    -0.3510     0.2590 c3         1 HUT       0.111500
      6 C07          1.4640     1.1380    -0.1590 c3         1 HUT       0.010800
      7 C08          2.5780     1.8860     0.5380 cc         1 HUT      -0.128400
      8 C09          2.4660     2.6680     1.6850 cd         1 HUT      -0.171100
      9 C11          4.6110     2.7360     1.0660 ca         1 HUT      -0.050200
     10 C12          3.9630     1.9470     0.1570 ca         1 HUT      -0.078800
     11 C13          4.6380     1.3600    -0.9240 ca         1 HUT      -0.041000
     12 C14          6.0230     1.6020    -1.0510 ca         1 HUT      -0.150000
     13 C15          6.6950     2.4170    -0.1100 ca         1 HUT      -0.090000
     14 C16          5.9860     2.9950     0.9640 ca         1 HUT      -0.136000
     15 C17         -0.0700    -0.9060    -0.1540 c          1 HUT       0.555100
     16 C19         -2.2370    -1.8300     0.7470 c3         1 HUT       0.099000
     17 C20         -3.2680    -0.7040     0.5250 c3         1 HUT      -0.094400
     18 C21         -4.7170    -1.2390     0.3950 c3         1 HUT      -0.074400
     19 C22         -5.8160    -0.1410     0.2640 c3         1 HUT      -0.052700
     20 C23         -7.2210    -0.7740     0.4950 c3         1 HUT      -0.068900
     21 C24         -8.3930     0.2040     0.7430 c3         1 HUT      -0.068400
     22 C25         -8.6220     1.2890    -0.3340 c3         1 HUT      -0.069400
     23 C26         -7.5320     2.3820    -0.3410 c3         1 HUT      -0.069400
     24 C27         -6.2530     2.0520    -1.1430 c3         1 HUT      -0.068400
     25 C28         -5.7490     0.5890    -1.1120 c3         1 HUT      -0.068900
     26 N05          2.4700    -1.1650    -0.2930 n7         1 HUT      -0.856400
     27 N10          3.7330     3.2020     2.0260 na         1 HUT      -0.224700
     28 N18         -0.8760    -1.3090     0.8930 ns         1 HUT      -0.503900
     29 O29         -0.4310    -1.0010    -1.3220 o          1 HUT      -0.612100
     30 H1           5.1690    -5.4310    -1.5490 hc         1 HUT       0.032033
     31 H2           6.1800    -4.8040    -0.2250 hc         1 HUT       0.032033
     32 H3           5.3670    -6.3750    -0.0570 hc         1 HUT       0.032033
     33 H4           3.1390    -5.2600    -0.0690 hc         1 HUT       0.036200
     34 H5           4.1400    -4.6400     1.2430 hc         1 HUT       0.036200
     35 H6           4.7230    -2.6300    -0.1510 hc         1 HUT       0.047200
     36 H7           3.7220    -3.2510    -1.4650 hc         1 HUT       0.047200
     37 H8           1.6990    -3.1210     0.0100 h1         1 HUT       0.028700
     38 H9           2.7100    -2.5040     1.3340 h1         1 HUT       0.028700
     39 H10          1.3740    -0.3740     1.3560 h1         1 HUT       0.062700
     40 H11          1.5880     1.2050    -1.2470 hc         1 HUT       0.052700
     41 H12          0.5170     1.6430     0.0650 hc         1 HUT       0.052700
     42 H13          1.5810     2.8810     2.2800 h4         1 HUT       0.205000
     43 H14          4.1120     0.7370    -1.6430 ha         1 HUT       0.122000
     44 H15          6.5740     1.1600    -1.8780 ha         1 HUT       0.109000
     45 H16          7.7620     2.5990    -0.2150 ha         1 HUT       0.107000
     46 H17          6.4930     3.6240     1.6920 ha         1 HUT       0.110000
     47 H18         -2.4950    -2.3880     1.6580 h1         1 HUT       0.052700
     48 H19         -2.2660    -2.5310    -0.0970 h1         1 HUT       0.052700
     49 H20         -3.2170    -0.0030     1.3670 hc         1 HUT       0.042700
     50 H21         -2.9870    -0.1460    -0.3740 hc         1 HUT       0.042700
     51 H22         -4.7790    -1.9200    -0.4630 hc         1 HUT       0.041700
     52 H23         -4.9240    -1.8450     1.2870 hc         1 HUT       0.041700
     53 H24         -5.6360     0.5910     1.0620 hc         1 HUT       0.048700
     54 H25         -7.4710    -1.4180    -0.3570 hc         1 HUT       0.036200
     55 H26         -7.1750    -1.4380     1.3670 hc         1 HUT       0.036200
     56 H27         -9.3120    -0.3880     0.8330 hc         1 HUT       0.034200
     57 H28         -8.2510     0.6900     1.7160 hc         1 HUT       0.034200
     58 H29         -8.7160     0.8330    -1.3270 hc         1 HUT       0.036200
     59 H30         -9.5840     1.7720    -0.1220 hc         1 HUT       0.036200
     60 H31         -7.9610     3.3030    -0.7540 hc         1 HUT       0.036200
     61 H32         -7.2560     2.6210     0.6940 hc         1 HUT       0.036200
     62 H33         -6.4190     2.3270    -2.1920 hc         1 HUT       0.034200
     63 H34         -5.4500     2.7080    -0.7850 hc         1 HUT       0.034200
     64 H35         -4.7210     0.6030    -1.4900 hc         1 HUT       0.036200
     65 H36         -6.3110     0.0060    -1.8520 hc         1 HUT       0.036200
     66 H37          2.3460    -1.2300    -1.3110 hn         1 HUT       0.430000
     67 H39          3.9530     3.8060     2.8130 hn         1 HUT       0.348000
     68 H40         -0.4960    -1.2150     1.8280 hn         1 HUT       0.310500
@<TRIPOS>BOND
     1     1     2 1   
     2     1    30 1   
     3     1    31 1   
     4     1    32 1   
     5     2     3 1   
     6     2    33 1   
     7     2    34 1   
     8     3     4 1   
     9     3    35 1   
    10     3    36 1   
    11     4    26 1   
    12     4    37 1   
    13     4    38 1   
    14     5     6 1   
    15     5    15 1   
    16     5    26 1   
    17     5    39 1   
    18     6     7 1   
    19     6    40 1   
    20     6    41 1   
    21     7     8 2   
    22     7    10 1   
    23     8    27 1   
    24     8    42 1   
    25     9    10 ar  
    26     9    14 ar  
    27     9    27 1   
    28    10    11 ar  
    29    11    12 ar  
    30    11    43 1   
    31    12    13 ar  
    32    12    44 1   
    33    13    14 ar  
    34    13    45 1   
    35    14    46 1   
    36    15    28 1   
    37    15    29 2   
    38    16    17 1   
    39    16    28 1   
    40    16    47 1   
    41    16    48 1   
    42    17    18 1   
    43    17    49 1   
    44    17    50 1   
    45    18    19 1   
    46    18    51 1   
    47    18    52 1   
    48    19    20 1   
    49    19    25 1   
    50    19    53 1   
    51    20    21 1   
    52    20    54 1   
    53    20    55 1   
    54    21    22 1   
    55    21    56 1   
    56    21    57 1   
    57    22    23 1   
    58    22    58 1   
    59    22    59 1   
    60    23    24 1   
    61    23    60 1   
    62    23    61 1   
    63    24    25 1   
    64    24    62 1   
    65    24    63 1   
    66    25    64 1   
    67    25    65 1   
    68    26    66 1   
    69    27    67 1   
    70    28    68 1   
@<TRIPOS>SUBSTRUCTURE
     1 HUT         1 TEMP              0 ****  ****    0 ROOT
