@<TRIPOS>MOLECULE
HUW
   41    44     1     0     0
SMALL
bcc


@<TRIPOS>ATOM
      1 O1          -3.0110     4.1340     0.3490 oh         1 HUW      -0.603800
      2 C1           3.9840     0.2220     0.1960 ca         1 HUW       0.043400
      3 N1           0.7540    -0.9760     1.2840 nb         1 HUW      -0.714000
      4 C3           1.7080    -0.5200     0.4500 ca         1 HUW       0.447600
      5 C4          -0.4300    -1.2580     0.7810 ca         1 HUW       0.493600
      6 C14          0.1930    -0.6070    -1.4520 ca         1 HUW       0.235600
      7 C2           2.9780    -0.2280     1.0020 ca         1 HUW      -0.172300
      8 C17          3.7960     0.4050    -1.1850 ca         1 HUW      -0.140000
      9 C15          1.4970    -0.3240    -0.9340 ca         1 HUW      -0.205300
     10 C5          -1.4270    -1.8190     1.7620 c6         1 HUW      -0.128700
     11 C13         -0.7760    -1.0930    -0.5760 ca         1 HUW      -0.289600
     12 C6          -2.8670    -1.7450     1.2580 c6         1 HUW      -0.024500
     13 C7          -3.3470    -0.3210     1.2510 c2         1 HUW      -0.157200
     14 C12         -2.9080    -2.3360    -0.1420 c6         1 HUW      -0.067400
     15 C8          -3.3960     0.4420     0.1600 c2         1 HUW      -0.117400
     16 C9          -2.9860    -0.0860    -1.1880 c6         1 HUW      -0.037200
     17 C18         -3.8080     1.8870     0.2200 c3         1 HUW      -0.041200
     18 C11         -2.1730    -1.3830    -1.0760 c6         1 HUW       0.001600
     19 C10         -2.5920     2.7870     0.3920 c3         1 HUW       0.140400
     20 C16          2.5700     0.1330    -1.7290 ca         1 HUW      -0.092000
     21 H1          -2.2450     4.6910     0.5170 ho         1 HUW       0.405000
     22 H101        -1.8570     2.5710    -0.3950 h1         1 HUW       0.021200
     23 H102        -2.1100     2.5430     1.3470 h1         1 HUW       0.021200
     24 H181        -4.3310     2.1650    -0.7010 hc         1 HUW       0.056700
     25 H182        -4.5000     2.0540     1.0490 hc         1 HUW       0.056700
     26 H7          -3.6300     0.1030     2.2110 ha         1 HUW       0.125000
     27 H91C        -3.8790    -0.2580    -1.8000 hc         1 HUW       0.043700
     28 H92C        -2.4160     0.6830    -1.7190 hc         1 HUW       0.043700
     29 H6          -3.4980    -2.3310     1.9330 hc         1 HUW       0.060700
     30 H51C        -1.1650    -2.8660     1.9500 hc         1 HUW       0.066700
     31 H52C        -1.3090    -1.3000     2.7160 hc         1 HUW       0.066700
     32 H121        -2.4400    -3.3240    -0.1480 hc         1 HUW       0.048700
     33 H122        -3.9370    -2.4660    -0.4840 hc         1 HUW       0.048700
     34 H2           3.1250    -0.3740     2.0630 ha         1 HUW       0.164000
     35 H17          4.6100     0.7510    -1.8080 ha         1 HUW       0.147000
     36 H16          2.4560     0.2730    -2.7960 ha         1 HUW       0.125000
     37 H21N        -1.0130    -0.4420    -3.0960 hn         1 HUW       0.419300
     38 H22N         0.5450     0.1340    -3.3300 hn         1 HUW       0.419300
     39 H11         -2.1130    -1.8510    -2.0650 hc         1 HUW       0.049700
     40 CL1          5.5390     0.5770     0.8740 cl         1 HUW      -0.109400
     41 N2          -0.0620    -0.4400    -2.7730 nv         1 HUW      -0.851200
@<TRIPOS>BOND
     1     1    19 1   
     2     1    21 1   
     3     2     7 ar  
     4     2     8 ar  
     5     2    40 1   
     6     3     4 ar  
     7     3     5 ar  
     8     4     7 ar  
     9     4     9 ar  
    10     5    10 1   
    11     5    11 ar  
    12     6     9 ar  
    13     6    11 ar  
    14     6    41 1   
    15     7    34 1   
    16     8    20 ar  
    17     8    35 1   
    18     9    20 ar  
    19    10    12 1   
    20    10    30 1   
    21    10    31 1   
    22    11    18 1   
    23    12    13 1   
    24    12    14 1   
    25    12    29 1   
    26    13    15 2   
    27    13    26 1   
    28    14    18 1   
    29    14    32 1   
    30    14    33 1   
    31    15    16 1   
    32    15    17 1   
    33    16    18 1   
    34    16    27 1   
    35    16    28 1   
    36    17    19 1   
    37    17    24 1   
    38    17    25 1   
    39    18    39 1   
    40    19    22 1   
    41    19    23 1   
    42    20    36 1   
    43    37    41 1   
    44    38    41 1   
@<TRIPOS>SUBSTRUCTURE
     1 HUW         1 TEMP              0 ****  ****    0 ROOT
