@<TRIPOS>MOLECULE
HUW
   41    44     1     0     0
SMALL
No Charge or Current Charge


@<TRIPOS>ATOM
      1 O1          -3.4030     4.2650     0.3700 oh         1 HUW      -0.666000
      2 C1           4.1500     0.0660     0.1840 ca         1 HUW       0.135000
      3 N1           0.8480    -1.0680     1.2670 nb         1 HUW      -0.714000
      4 C3           1.8230    -0.6220     0.4520 ca         1 HUW       0.317000
      5 C4          -0.3820    -1.2860     0.7640 ca         1 HUW       0.428300
      6 C14          0.3050    -0.6150    -1.4460 ca         1 HUW       0.374000
      7 C2           3.1010    -0.3940     0.9900 ca         1 HUW      -0.089000
      8 C17          3.9340     0.3040    -1.1780 ca         1 HUW      -0.122000
      9 C15          1.5970    -0.3810    -0.9250 ca         1 HUW      -0.140000
     10 C5          -1.3930    -1.8190     1.7840 c6         1 HUW      -0.128700
     11 C13         -0.7110    -1.0820    -0.5920 ca         1 HUW      -0.224300
     12 C6          -2.8540    -1.7700     1.2820 c6         1 HUW      -0.024500
     13 C7          -3.3740    -0.3360     1.3190 c2         1 HUW      -0.207200
     14 C12         -2.9030    -2.3270    -0.1560 c6         1 HUW      -0.067400
     15 C8          -3.4200     0.4690     0.2410 c2         1 HUW      -0.117400
     16 C9          -2.9650    -0.0120    -1.1420 c6         1 HUW      -0.037200
     17 C18         -3.9540     1.8920     0.2940 c3         1 HUW      -0.041200
     18 C11         -2.1570    -1.3400    -1.0840 c6         1 HUW       0.001600
     19 C10         -2.8340     2.9540     0.2730 c3         1 HUW       0.163600
     20 C16          2.6660     0.0830    -1.7360 ca         1 HUW      -0.074000
     21 H1          -2.6530     4.9020     0.3610 ho         1 HUW       0.444000
     22 H101        -2.2560     2.8600    -0.6560 h1         1 HUW       0.021200
     23 H102        -2.1520     2.7720     1.1140 h1         1 HUW       0.021200
     24 H181        -4.6440     2.0690    -0.5400 hc         1 HUW       0.056700
     25 H182        -4.5410     2.0340     1.2100 hc         1 HUW       0.056700
     26 H7          -3.7160     0.0210     2.2930 ha         1 HUW       0.175000
     27 H91C        -3.8530    -0.1510    -1.7750 hc         1 HUW       0.043700
     28 H92C        -2.3620     0.7620    -1.6340 hc         1 HUW       0.043700
     29 H6          -3.4850    -2.3940     1.9320 hc         1 HUW       0.060700
     30 H51C        -1.1300    -2.8590     2.0180 hc         1 HUW       0.066700
     31 H52C        -1.3060    -1.2640     2.7270 hc         1 HUW       0.066700
     32 H121        -2.4410    -3.3230    -0.2010 hc         1 HUW       0.048700
     33 H122        -3.9450    -2.4480    -0.4850 hc         1 HUW       0.048700
     34 H2           3.2770    -0.5780     2.0450 ha         1 HUW       0.146000
     35 H17          4.7510     0.6600    -1.8030 ha         1 HUW       0.129000
     36 H16          2.5320     0.2730    -2.7970 ha         1 HUW       0.107000
     37 H21N        -0.9400    -0.4070    -3.0810 hn         1 HUW       0.474500
     38 H22N         0.6840     0.1340    -3.3430 hn         1 HUW       0.474500
     39 H11         -2.1320    -1.7840    -2.0890 hc         1 HUW       0.049700
     40 Cl1          5.7400     0.3430     0.8830 cl         1 HUW      -0.201000
     41 N2           0.0280    -0.3930    -2.7740 nv         1 HUW      -1.100000
@<TRIPOS>BOND
     1     1    19 1   
     2     1    21 1   
     3     2     7 ar  
     4     2     8 ar  
     5     2    40 1   
     6     3     4 ar  
     7     3     5 ar  
     8     4     7 ar  
     9     4     9 ar  
    10     5    10 1   
    11     5    11 ar  
    12     6     9 ar  
    13     6    11 ar  
    14     6    41 1   
    15     7    34 1   
    16     8    20 ar  
    17     8    35 1   
    18     9    20 ar  
    19    10    12 1   
    20    10    30 1   
    21    10    31 1   
    22    11    18 1   
    23    12    13 1   
    24    12    14 1   
    25    12    29 1   
    26    13    15 2   
    27    13    26 1   
    28    14    18 1   
    29    14    32 1   
    30    14    33 1   
    31    15    16 1   
    32    15    17 1   
    33    16    18 1   
    34    16    27 1   
    35    16    28 1   
    36    17    19 1   
    37    17    24 1   
    38    17    25 1   
    39    18    39 1   
    40    19    22 1   
    41    19    23 1   
    42    20    36 1   
    43    37    41 1   
    44    38    41 1   
@<TRIPOS>SUBSTRUCTURE
     1 HUW         1 TEMP              0 ****  ****    0 ROOT
