@<TRIPOS>MOLECULE
HUX
   40    43     1     0     0
SMALL
No Charge or Current Charge


@<TRIPOS>ATOM
      1 Cl1         -0.6170     0.6150     5.5780 cl         1 HUX      -0.203000
      2 C1          -0.1410     0.1010     3.9650 ca         1 HUX       0.134000
      3 N1          -1.5580     0.0080     0.5970 nb         1 HUX      -0.712000
      4 C3          -0.6690    -0.1560     1.5950 ca         1 HUX       0.316000
      5 C4          -1.2200    -0.3680    -0.6520 ca         1 HUX       0.429300
      6 C14          0.9540    -1.1220     0.0640 ca         1 HUX       0.366000
      7 C2          -1.0290     0.2470     2.8920 ca         1 HUX      -0.088000
      8 C17          1.1270    -0.4520     3.7540 ca         1 HUX      -0.121000
      9 C15          0.6110    -0.7200     1.3760 ca         1 HUX      -0.137000
     10 C5          -2.3230    -0.1510    -1.6940 c6         1 HUX      -0.127700
     11 C13          0.0230    -0.9480    -0.9770 ca         1 HUX      -0.219300
     12 C6          -1.8250    -0.2850    -3.1510 c6         1 HUX      -0.021500
     13 C7          -1.0200     0.9490    -3.5460 c2         1 HUX      -0.219200
     14 C12         -0.9570    -1.5570    -3.2600 c6         1 HUX      -0.069400
     15 C8           0.3260     0.9970    -3.5340 c2         1 HUX      -0.106400
     16 C9           1.1710    -0.2200    -3.1390 c6         1 HUX      -0.039200
     17 C18          1.1100     2.2320    -3.9420 c3         1 HUX      -0.036200
     18 C11          0.3370    -1.3330    -2.4450 c6         1 HUX       0.006600
     19 C10          1.6650     3.0140    -2.7350 c3         1 HUX      -0.087100
     20 C16          1.5070    -0.8630     2.4670 ca         1 HUX      -0.074000
     21 HN21         2.7680    -1.9980     0.5620 hn         1 HUX       0.470000
     22 HN22         2.3480    -2.0960    -1.1180 hn         1 HUX       0.470000
     23 HC2         -2.0100     0.6790     3.0640 ha         1 HUX       0.146000
     24 H17          1.8170    -0.5630     4.5870 ha         1 HUX       0.129000
     25 HC51        -2.7890     0.8330    -1.5510 hc         1 HUX       0.065200
     26 HC52        -3.1150    -0.8900    -1.5160 hc         1 HUX       0.065200
     27 HC6         -2.6880    -0.3780    -3.8250 hc         1 HUX       0.058700
     28 HC7         -1.6020     1.8220    -3.8440 ha         1 HUX       0.173000
     29 H121        -1.5040    -2.4320    -2.8840 hc         1 HUX       0.046200
     30 H122        -0.7150    -1.7650    -4.3120 hc         1 HUX       0.046200
     31 HC91         1.6460    -0.6260    -4.0420 hc         1 HUX       0.049200
     32 HC92         1.9920     0.0860    -2.4780 hc         1 HUX       0.049200
     33 H181         0.4670     2.9110    -4.5160 hc         1 HUX       0.041700
     34 H182         1.9350     1.9580    -4.6120 hc         1 HUX       0.041700
     35 H11          0.9090    -2.2710    -2.4670 hc         1 HUX       0.036700
     36 H101         2.1790     3.9220    -3.0720 hc         1 HUX       0.035367
     37 H102         0.8520     3.3090    -2.0620 hc         1 HUX       0.035367
     38 H103         2.3810     2.4080    -2.1680 hc         1 HUX       0.035367
     39 H16          2.4990    -1.2850     2.3350 ha         1 HUX       0.107000
     40 N2           2.1800    -1.6850    -0.2050 nv         1 HUX      -1.092000
@<TRIPOS>BOND
     1     1     2 1   
     2     2     7 ar  
     3     2     8 ar  
     4     3     4 ar  
     5     3     5 ar  
     6     4     7 ar  
     7     4     9 ar  
     8     5    10 1   
     9     5    11 ar  
    10     6     9 ar  
    11     6    11 ar  
    12     6    40 1   
    13     7    23 1   
    14     8    20 ar  
    15     8    24 1   
    16     9    20 ar  
    17    10    12 1   
    18    10    25 1   
    19    10    26 1   
    20    11    18 1   
    21    12    13 1   
    22    12    14 1   
    23    12    27 1   
    24    13    15 2   
    25    13    28 1   
    26    14    18 1   
    27    14    29 1   
    28    14    30 1   
    29    15    16 1   
    30    15    17 1   
    31    16    18 1   
    32    16    31 1   
    33    16    32 1   
    34    17    19 1   
    35    17    33 1   
    36    17    34 1   
    37    18    35 1   
    38    19    36 1   
    39    19    37 1   
    40    19    38 1   
    41    20    39 1   
    42    21    40 1   
    43    22    40 1   
@<TRIPOS>SUBSTRUCTURE
     1 HUX         1 TEMP              0 ****  ****    0 ROOT
