@<TRIPOS>MOLECULE
HUX
   40    43     1     0     0
SMALL
bcc


@<TRIPOS>ATOM
      1 CL1         -0.5420     0.7650     5.4070 cl         1 HUX      -0.111400
      2 C1          -0.1070     0.2230     3.8180 ca         1 HUX       0.042400
      3 N1          -1.5640     0.0330     0.5180 nb         1 HUX      -0.712000
      4 C3          -0.6500    -0.1080     1.4970 ca         1 HUX       0.446600
      5 C4          -1.2480    -0.3730    -0.6940 ca         1 HUX       0.494600
      6 C14          0.9500    -1.1070    -0.0400 ca         1 HUX       0.227600
      7 C2          -1.0020     0.3370     2.7940 ca         1 HUX      -0.171300
      8 C17          1.1730    -0.3240     3.6230 ca         1 HUX      -0.139000
      9 C15          0.6300    -0.6690     1.2840 ca         1 HUX      -0.202300
     10 C5          -2.3340    -0.2140    -1.7260 c6         1 HUX      -0.127700
     11 C13         -0.0090    -0.9520    -1.0390 ca         1 HUX      -0.284600
     12 C6          -1.8100    -0.3030    -3.1580 c6         1 HUX      -0.021500
     13 C7          -0.9980     0.9180    -3.4910 c2         1 HUX      -0.169200
     14 C12         -0.9640    -1.5610    -3.2770 c6         1 HUX      -0.069400
     15 C8           0.3340     0.9560    -3.4780 c2         1 HUX      -0.106400
     16 C9           1.1470    -0.2660    -3.1480 c6         1 HUX      -0.039200
     17 C18          1.1000     2.2190    -3.7530 c3         1 HUX      -0.036200
     18 C11          0.3050    -1.3500    -2.4630 c6         1 HUX       0.006600
     19 C10          1.6390     2.8620    -2.4750 c3         1 HUX      -0.087100
     20 C16          1.5240    -0.7570     2.3730 ca         1 HUX      -0.092000
     21 HN21         2.7380    -1.9760     0.4470 hn         1 HUX       0.414800
     22 HN22         2.3150    -2.1150    -1.1690 hn         1 HUX       0.414800
     23 HC2         -1.9850     0.7630     2.9450 ha         1 HUX       0.164000
     24 H17          1.8690    -0.3980     4.4470 ha         1 HUX       0.147000
     25 HC51        -2.8460     0.7350    -1.5520 hc         1 HUX       0.065200
     26 HC52        -3.0820    -0.9980    -1.5610 hc         1 HUX       0.065200
     27 HC6         -2.6670    -0.3570    -3.8360 hc         1 HUX       0.058700
     28 HC7         -1.5510     1.8270    -3.7170 ha         1 HUX       0.123000
     29 H121        -1.5190    -2.4300    -2.9130 hc         1 HUX       0.046200
     30 H122        -0.7010    -1.7600    -4.3180 hc         1 HUX       0.046200
     31 HC91         1.5880    -0.6660    -4.0690 hc         1 HUX       0.049200
     32 HC92         1.9980     0.0140    -2.5190 hc         1 HUX       0.049200
     33 H181         0.4600     2.9340    -4.2740 hc         1 HUX       0.041700
     34 H182         1.9350     2.0020    -4.4280 hc         1 HUX       0.041700
     35 H11          0.8710    -2.2880    -2.4650 hc         1 HUX       0.036700
     36 H101         2.2200     3.7570    -2.7030 hc         1 HUX       0.035367
     37 H102         0.8200     3.1510    -1.8170 hc         1 HUX       0.035367
     38 H103         2.2860     2.1820    -1.9190 hc         1 HUX       0.035367
     39 H16          2.5180    -1.1650     2.2460 ha         1 HUX       0.125000
     40 N2           2.1800    -1.6140    -0.3070 nv         1 HUX      -0.843200
@<TRIPOS>BOND
     1     1     2 1   
     2     2     7 ar  
     3     2     8 ar  
     4     3     4 ar  
     5     3     5 ar  
     6     4     7 ar  
     7     4     9 ar  
     8     5    10 1   
     9     5    11 ar  
    10     6     9 ar  
    11     6    11 ar  
    12     6    40 1   
    13     7    23 1   
    14     8    20 ar  
    15     8    24 1   
    16     9    20 ar  
    17    10    12 1   
    18    10    25 1   
    19    10    26 1   
    20    11    18 1   
    21    12    13 1   
    22    12    14 1   
    23    12    27 1   
    24    13    15 2   
    25    13    28 1   
    26    14    18 1   
    27    14    29 1   
    28    14    30 1   
    29    15    16 1   
    30    15    17 1   
    31    16    18 1   
    32    16    31 1   
    33    16    32 1   
    34    17    19 1   
    35    17    33 1   
    36    17    34 1   
    37    18    35 1   
    38    19    36 1   
    39    19    37 1   
    40    19    38 1   
    41    20    39 1   
    42    21    40 1   
    43    22    40 1   
@<TRIPOS>SUBSTRUCTURE
     1 HUX         1 TEMP              0 ****  ****    0 ROOT
