@<TRIPOS>MOLECULE
HUY
   32    33     1     0     0
SMALL
bcc


@<TRIPOS>ATOM
      1 C3           2.6850    -2.5730     1.1420 c3         1 HUY      -0.195100
      2 C4           2.1730    -1.6260     0.0860 c          1 HUY       0.582700
      3 O1           1.2220    -1.9210    -0.6040 o          1 HUY      -0.505100
      4 C5           2.9000    -0.3380    -0.1040 ca         1 HUY      -0.210600
      5 C6           4.2690    -0.3040     0.1710 ca         1 HUY      -0.072000
      6 C7           5.0580     0.7800    -0.1670 ca         1 HUY      -0.168000
      7 C8           4.4680     1.8750    -0.7830 ca         1 HUY      -0.073000
      8 C9           3.1050     1.8910    -1.0140 ca         1 HUY      -0.199000
      9 C10          2.3000     0.8010    -0.6780 ca         1 HUY       0.220600
     10 N2           0.9410     0.8970    -0.9380 nu         1 HUY      -0.652000
     11 C11         -0.0950     0.5570    -0.0850 ca         1 HUY       0.190600
     12 C12          0.0900     0.3630     1.2860 ca         1 HUY      -0.160000
     13 C13         -0.9820     0.0390     2.0940 ca         1 HUY      -0.102000
     14 C14         -2.2650    -0.0800     1.5750 ca         1 HUY      -0.115000
     15 C15         -2.4530     0.1330     0.2190 ca         1 HUY      -0.158300
     16 C16         -3.8090     0.0220    -0.4040 c3         1 HUY       0.718200
     17 F1          -4.1640     1.1540    -1.0270 f          1 HUY      -0.235633
     18 F2          -3.8520    -0.9480    -1.3330 f          1 HUY      -0.235633
     19 F3          -4.7660    -0.2530     0.4860 f          1 HUY      -0.235633
     20 C17         -1.3800     0.4380    -0.6080 ca         1 HUY      -0.131000
     21 H1           2.9530    -2.0570     2.0630 hc         1 HUY       0.060367
     22 H2           1.9310    -3.3260     1.3580 hc         1 HUY       0.060367
     23 H3           3.5780    -3.0920     0.7900 hc         1 HUY       0.060367
     24 H4           4.7440    -1.1620     0.6280 ha         1 HUY       0.132000
     25 H5           6.1180     0.7680     0.0410 ha         1 HUY       0.138000
     26 H6           5.0640     2.7330    -1.0620 ha         1 HUY       0.135000
     27 H7           2.6490     2.7720    -1.4480 ha         1 HUY       0.135000
     28 H8           0.6940     1.5170    -1.6910 hn         1 HUY       0.438800
     29 H9           1.0700     0.4820     1.7310 ha         1 HUY       0.141000
     30 H10         -0.8210    -0.1070     3.1540 ha         1 HUY       0.136000
     31 H11         -3.0880    -0.3240     2.2310 ha         1 HUY       0.150000
     32 H12         -1.5260     0.5790    -1.6730 ha         1 HUY       0.148000
@<TRIPOS>BOND
     1     1     2 1   
     2     1    21 1   
     3     1    22 1   
     4     1    23 1   
     5     2     3 2   
     6     2     4 1   
     7     4     5 ar  
     8     4     9 ar  
     9     5     6 ar  
    10     5    24 1   
    11     6     7 ar  
    12     6    25 1   
    13     7     8 ar  
    14     7    26 1   
    15     8     9 ar  
    16     8    27 1   
    17     9    10 1   
    18    10    11 1   
    19    10    28 1   
    20    11    12 ar  
    21    11    20 ar  
    22    12    13 ar  
    23    12    29 1   
    24    13    14 ar  
    25    13    30 1   
    26    14    15 ar  
    27    14    31 1   
    28    15    16 1   
    29    15    20 ar  
    30    16    17 1   
    31    16    18 1   
    32    16    19 1   
    33    20    32 1   
@<TRIPOS>SUBSTRUCTURE
     1 HUY         1 TEMP              0 ****  ****    0 ROOT
