@<TRIPOS>MOLECULE
HUY
   32    33     1     0     0
SMALL
No Charge or Current Charge


@<TRIPOS>ATOM
      1 C3           2.4460    -2.3980     1.2680 c3         1 HUY      -0.195100
      2 C4           2.2240    -1.6340    -0.0380 c          1 HUY       0.582700
      3 O1           1.4670    -2.0790    -0.8920 o          1 HUY      -0.505100
      4 C5           3.0020    -0.3660    -0.2500 ca         1 HUY      -0.210600
      5 C6           4.4040    -0.3900    -0.0740 ca         1 HUY      -0.054000
      6 C7           5.1740     0.7550    -0.3290 ca         1 HUY      -0.150000
      7 C8           4.5550     1.9340    -0.7680 ca         1 HUY      -0.055000
      8 C9           3.1610     1.9660    -0.9360 ca         1 HUY      -0.181000
      9 C10          2.3780     0.8330    -0.6620 ca         1 HUY       0.359000
     10 N2           0.9970     0.9630    -0.8060 nu         1 HUY      -0.984000
     11 C11         -0.0810     0.5660    -0.0110 ca         1 HUY       0.329000
     12 C12          0.0970     0.2720     1.3520 ca         1 HUY      -0.142000
     13 C13         -0.9960    -0.1260     2.1390 ca         1 HUY      -0.084000
     14 C14         -2.2770    -0.2180     1.5700 ca         1 HUY      -0.097000
     15 C15         -2.4800     0.0990     0.2080 ca         1 HUY      -0.158300
     16 C16         -3.8750    -0.0030    -0.4210 c3         1 HUY       0.354300
     17 F1          -4.0610     0.9060    -1.4060 f          1 HUY      -0.114333
     18 F2          -4.0790    -1.2230    -0.9660 f          1 HUY      -0.114333
     19 F3          -4.8650     0.1980     0.4790 f          1 HUY      -0.114333
     20 C17         -1.3670     0.4890    -0.5720 ca         1 HUY      -0.113000
     21 H1           2.5590    -1.6920     2.0980 hc         1 HUY       0.060367
     22 H2           1.6630    -3.1430     1.4510 hc         1 HUY       0.060367
     23 H3           3.4220    -2.8930     1.2200 hc         1 HUY       0.060367
     24 H4           4.9060    -1.3040     0.2390 ha         1 HUY       0.114000
     25 H5           6.2530     0.7250    -0.1970 ha         1 HUY       0.120000
     26 H6           5.1510     2.8210    -0.9730 ha         1 HUY       0.117000
     27 H7           2.6860     2.8880    -1.2590 ha         1 HUY       0.117000
     28 H8           0.7260     1.5590    -1.5890 hn         1 HUY       0.494000
     29 H9           1.0790     0.3610     1.8060 ha         1 HUY       0.123000
     30 H10         -0.8510    -0.3600     3.1910 ha         1 HUY       0.118000
     31 H11         -3.1110    -0.5340     2.1940 ha         1 HUY       0.132000
     32 H12         -1.4970     0.7200    -1.6260 ha         1 HUY       0.130000
@<TRIPOS>BOND
     1     1     2 1   
     2     1    21 1   
     3     1    22 1   
     4     1    23 1   
     5     2     3 2   
     6     2     4 1   
     7     4     5 ar  
     8     4     9 ar  
     9     5     6 ar  
    10     5    24 1   
    11     6     7 ar  
    12     6    25 1   
    13     7     8 ar  
    14     7    26 1   
    15     8     9 ar  
    16     8    27 1   
    17     9    10 1   
    18    10    11 1   
    19    10    28 1   
    20    11    12 ar  
    21    11    20 ar  
    22    12    13 ar  
    23    12    29 1   
    24    13    14 ar  
    25    13    30 1   
    26    14    15 ar  
    27    14    31 1   
    28    15    16 1   
    29    15    20 ar  
    30    16    17 1   
    31    16    18 1   
    32    16    19 1   
    33    20    32 1   
@<TRIPOS>SUBSTRUCTURE
     1 HUY         1 TEMP              0 ****  ****    0 ROOT
