@<TRIPOS>MOLECULE
HUZ
   70    72     1     0     0
SMALL
abcg2


@<TRIPOS>ATOM
      1 C23         -6.9540     0.4850     1.5100 ca         1 HUZ      -0.144000
      2 C24         -7.8460     1.0520     0.5830 ca         1 HUZ      -0.089000
      3 C25         -7.3930     1.8300    -0.4640 ca         1 HUZ      -0.134000
      4 N26         -2.7480    -0.8750     0.2840 n7         1 HUZ      -0.847400
      5 C21         -5.1030     1.4760     0.3550 ca         1 HUZ      -0.099800
      6 C14          5.2100     1.6500    -0.7150 c6         1 HUZ      -0.070400
      7 C15         -1.8700     0.2490     0.0620 c3         1 HUZ       0.108500
      8 C16         -2.4920     1.5450     0.6060 c3         1 HUZ       0.001800
      9 C13          6.6800     1.5720    -0.3140 c6         1 HUZ      -0.086900
     10 C02         -0.5460     0.0140     0.7860 c          1 HUZ       0.594100
     11 C04          1.9000     0.0410     0.5280 c3         1 HUZ       0.102000
     12 C05          2.8770     0.8030    -0.3560 c3         1 HUZ      -0.090400
     13 C06          4.3320     0.6910     0.0890 c6         1 HUZ      -0.058700
     14 C07          4.8830    -0.7300    -0.0370 c6         1 HUZ      -0.070400
     15 C08          6.3500    -0.8120     0.3740 c6         1 HUZ      -0.086900
     16 C09          7.2190     0.1490    -0.4430 c6         1 HUZ       0.186500
     17 C17         -3.7900     1.8950    -0.0460 cc         1 HUZ      -0.148400
     18 C18         -3.9660     2.6660    -1.1620 cd         1 HUZ      -0.162100
     19 C20         -6.0180     2.0350    -0.5660 ca         1 HUZ      -0.049200
     20 C22         -5.5920     0.6860     1.4040 ca         1 HUZ      -0.054000
     21 C28         -3.3460    -3.1950    -0.2370 c3         1 HUZ      -0.081400
     22 C29         -2.8760    -4.5260    -0.8090 c3         1 HUZ      -0.073400
     23 C30         -3.9500    -5.6030    -0.7490 c3         1 HUZ      -0.088100
     24 N03          0.5470     0.1910     0.0330 ns         1 HUZ      -0.514900
     25 N10          8.6510     0.0900    -0.1610 n3         1 HUZ      -0.727600
     26 N19         -5.2940     2.7490    -1.4740 na         1 HUZ      -0.223700
     27 O01         -0.5020    -0.2740     1.9740 o          1 HUZ      -0.582100
     28 H1          -7.3450    -0.1210     2.3170 ha         1 HUZ       0.113000
     29 H2          -8.9080     0.8730     0.6920 ha         1 HUZ       0.109000
     30 H3          -8.0810     2.2640    -1.1790 ha         1 HUZ       0.111000
     31 H4          -3.6570    -0.6500    -0.1030 hn         1 HUZ       0.427000
     32 H7           5.1100     1.4110    -1.7800 hc         1 HUZ       0.039700
     33 H8          -1.6680     0.4030    -1.0120 h1         1 HUZ       0.011700
     34 H9          -2.6310     1.4380     1.6840 hc         1 HUZ       0.063700
     35 H10         -1.7750     2.3560     0.4580 hc         1 HUZ       0.063700
     36 H11          7.2760     2.2440    -0.9360 hc         1 HUZ       0.044950
     37 H12          6.7850     1.9230     0.7180 hc         1 HUZ       0.044950
     38 H13         10.0820     0.4330     1.3150 h1         1 HUZ       0.028367
     39 H14          8.5030     1.1180     1.6630 h1         1 HUZ       0.028367
     40 H15          8.7740    -0.6170     1.8610 h1         1 HUZ       0.028367
     41 H16          9.0890    -1.1400    -1.7940 h1         1 HUZ       0.028367
     42 H17         10.3710    -1.0080    -0.5930 h1         1 HUZ       0.028367
     43 H18          8.9700    -2.0300    -0.2690 h1         1 HUZ       0.028367
     44 H19          2.1650    -1.0190     0.5770 h1         1 HUZ       0.052700
     45 H20          1.9460     0.4250     1.5480 h1         1 HUZ       0.052700
     46 H21          2.7910     0.4470    -1.3900 hc         1 HUZ       0.041700
     47 H22          2.5820     1.8570    -0.3670 hc         1 HUZ       0.041700
     48 H23          4.3920     0.9860     1.1460 hc         1 HUZ       0.051700
     49 H24          4.3020    -1.4300     0.5680 hc         1 HUZ       0.039700
     50 H25          4.7720    -1.0600    -1.0770 hc         1 HUZ       0.039700
     51 H26          6.4340    -0.5680     1.4390 hc         1 HUZ       0.044950
     52 H27          6.7050    -1.8410     0.2600 hc         1 HUZ       0.044950
     53 H28          7.1140    -0.1340    -1.4990 h1         1 HUZ       0.051700
     54 H29         -3.2300     3.1760    -1.7630 h4         1 HUZ       0.209000
     55 H30         -4.9120     0.2320     2.1140 ha         1 HUZ       0.131000
     56 H33         -3.6440    -3.3260     0.8080 hc         1 HUZ       0.047200
     57 H34         -4.2410    -2.8630    -0.7760 hc         1 HUZ       0.047200
     58 H35         -2.5600    -4.3850    -1.8470 hc         1 HUZ       0.036200
     59 H36         -1.9880    -4.8600    -0.2640 hc         1 HUZ       0.036200
     60 H37         -3.6000    -6.5410    -1.1810 hc         1 HUZ       0.032033
     61 H38         -4.2520    -5.8060     0.2800 hc         1 HUZ       0.032033
     62 H39         -4.8420    -5.3000    -1.3000 hc         1 HUZ       0.032033
     63 H40          0.4280     0.3530    -0.9540 hn         1 HUZ       0.307500
     64 H42         -5.6720     3.2660    -2.2490 hn         1 HUZ       0.349000
     65 C27         -2.2820    -2.1120    -0.3170 c3         1 HUZ       0.157800
     66 H6           4.8510     2.6750    -0.5920 hc         1 HUZ       0.039700
     67 C12          9.0080     0.2550     1.2310 c3         1 HUZ       0.158600
     68 C11          9.2890    -1.0790    -0.7230 c3         1 HUZ       0.158600
     69 H31         -1.9790    -1.9770    -1.3690 h1         1 HUZ       0.027700
     70 H32         -1.3890    -2.4530     0.2160 h1         1 HUZ       0.027700
@<TRIPOS>BOND
     1     1     2 ar  
     2     1    20 ar  
     3     1    28 1   
     4     2     3 ar  
     5     2    29 1   
     6     3    19 ar  
     7     3    30 1   
     8     4     7 1   
     9     4    31 1   
    10     4    65 1   
    11     5    17 1   
    12     5    19 ar  
    13     5    20 ar  
    14     6     9 1   
    15     6    13 1   
    16     6    32 1   
    17     6    66 1   
    18     7     8 1   
    19     7    10 1   
    20     7    33 1   
    21     8    17 1   
    22     8    34 1   
    23     8    35 1   
    24     9    16 1   
    25     9    36 1   
    26     9    37 1   
    27    10    24 1   
    28    10    27 2   
    29    11    12 1   
    30    11    24 1   
    31    11    44 1   
    32    11    45 1   
    33    12    13 1   
    34    12    46 1   
    35    12    47 1   
    36    13    14 1   
    37    13    48 1   
    38    14    15 1   
    39    14    49 1   
    40    14    50 1   
    41    15    16 1   
    42    15    51 1   
    43    15    52 1   
    44    16    25 1   
    45    16    53 1   
    46    17    18 2   
    47    18    26 1   
    48    18    54 1   
    49    19    26 1   
    50    20    55 1   
    51    21    22 1   
    52    21    56 1   
    53    21    57 1   
    54    21    65 1   
    55    22    23 1   
    56    22    58 1   
    57    22    59 1   
    58    23    60 1   
    59    23    61 1   
    60    23    62 1   
    61    24    63 1   
    62    25    67 1   
    63    25    68 1   
    64    26    64 1   
    65    38    67 1   
    66    39    67 1   
    67    40    67 1   
    68    41    68 1   
    69    42    68 1   
    70    43    68 1   
    71    65    69 1   
    72    65    70 1   
@<TRIPOS>SUBSTRUCTURE
     1 HUZ         1 TEMP              0 ****  ****    0 ROOT
