@<TRIPOS>MOLECULE
HUZ
   70    72     1     0     0
SMALL
No Charge or Current Charge


@<TRIPOS>ATOM
      1 C23         -6.7310     0.7570     1.3450 ca         1 HUZ      -0.144000
      2 C24         -7.6470     1.2210     0.3710 ca         1 HUZ      -0.089000
      3 C25         -7.1790     1.8660    -0.7930 ca         1 HUZ      -0.134000
      4 N26         -2.7770    -0.8960     0.3030 n7         1 HUZ      -0.847400
      5 C21         -4.9120     1.5710    -0.0130 ca         1 HUZ      -0.099800
      6 C14          5.0400     1.6970     0.4030 c6         1 HUZ      -0.070400
      7 C15         -1.7670     0.1220    -0.1190 c3         1 HUZ       0.108500
      8 C16         -2.2810     1.5460     0.2120 c3         1 HUZ       0.001800
      9 C13          6.5270     1.5470     0.8080 c6         1 HUZ      -0.086900
     10 C02         -0.3300    -0.1130     0.4670 c          1 HUZ       0.594100
     11 C04          2.0150    -0.8130    -0.1510 c3         1 HUZ       0.102000
     12 C05          2.8450     0.4900    -0.1300 c3         1 HUZ      -0.090400
     13 C06          4.3440     0.3150     0.2640 c6         1 HUZ      -0.058700
     14 C07          5.1260    -0.5830    -0.7390 c6         1 HUZ      -0.070400
     15 C08          6.6180    -0.7210    -0.3450 c6         1 HUZ      -0.086900
     16 C09          7.3020     0.6730    -0.2180 c6         1 HUZ       0.186500
     17 C17         -3.5860     1.8850    -0.4710 cc         1 HUZ      -0.148400
     18 C18         -3.7490     2.5370    -1.6890 cd         1 HUZ      -0.162100
     19 C20         -5.7950     2.0260    -0.9510 ca         1 HUZ      -0.049200
     20 C22         -5.3440     0.9330     1.1600 ca         1 HUZ      -0.054000
     21 C28         -3.7120    -3.1770     0.2630 c3         1 HUZ      -0.081400
     22 C29         -3.5660    -4.6290    -0.2440 c3         1 HUZ      -0.073400
     23 C30         -4.7060    -5.5510     0.2300 c3         1 HUZ      -0.088100
     24 N03          0.6040    -0.5610    -0.4490 ns         1 HUZ      -0.514900
     25 N10          8.7680     0.6030     0.0830 n3         1 HUZ      -0.727600
     26 N19         -5.1280     2.6290    -2.0010 na         1 HUZ      -0.223700
     27 O01         -0.0350     0.0940     1.6400 o          1 HUZ      -0.582100
     28 H1          -7.0990     0.2640     2.2420 ha         1 HUZ       0.113000
     29 H2          -8.7150     1.0830     0.5220 ha         1 HUZ       0.109000
     30 H3          -7.8750     2.2300    -1.5460 ha         1 HUZ       0.111000
     31 H4          -3.6900    -0.5650    -0.0350 hn         1 HUZ       0.427000
     32 H7           4.9720     2.2490    -0.5450 hc         1 HUZ       0.039700
     33 H8          -1.6730     0.0780    -1.2130 h1         1 HUZ       0.011700
     34 H9          -2.3900     1.6490     1.2980 hc         1 HUZ       0.063700
     35 H10         -1.5160     2.2730    -0.0870 hc         1 HUZ       0.063700
     36 H11          6.9920     2.5400     0.8770 hc         1 HUZ       0.044950
     37 H12          6.5760     1.1050     1.8120 hc         1 HUZ       0.044950
     38 H13         10.2160     0.0420     1.5450 h1         1 HUZ       0.028367
     39 H14          8.6410     0.4690     2.2230 h1         1 HUZ       0.028367
     40 H15          8.8600    -1.0910     1.3920 h1         1 HUZ       0.028367
     41 H16          9.3380     0.6030    -1.9740 h1         1 HUZ       0.028367
     42 H17         10.6490     0.2190    -0.8430 h1         1 HUZ       0.028367
     43 H18          9.4010    -0.9950    -1.1910 h1         1 HUZ       0.028367
     44 H19          2.4090    -1.4940    -0.9170 h1         1 HUZ       0.052700
     45 H20          2.0920    -1.3170     0.8220 h1         1 HUZ       0.052700
     46 H21          2.7740     0.9640    -1.1160 hc         1 HUZ       0.041700
     47 H22          2.3710     1.1830     0.5750 hc         1 HUZ       0.041700
     48 H23          4.3510    -0.1740     1.2490 hc         1 HUZ       0.051700
     49 H24          4.6790    -1.5850    -0.7850 hc         1 HUZ       0.039700
     50 H25          5.0510    -0.1620    -1.7520 hc         1 HUZ       0.039700
     51 H26          6.6900    -1.2690     0.6040 hc         1 HUZ       0.044950
     52 H27          7.1290    -1.3330    -1.1000 hc         1 HUZ       0.044950
     53 H28          7.1860     1.1730    -1.1930 h1         1 HUZ       0.051700
     54 H29         -2.9880     2.9310    -2.3590 h4         1 HUZ       0.209000
     55 H30         -4.6340     0.5840     1.9070 ha         1 HUZ       0.131000
     56 H33         -3.7380    -3.1800     1.3600 hc         1 HUZ       0.047200
     57 H34         -4.6710    -2.7700    -0.0810 hc         1 HUZ       0.047200
     58 H35         -3.5390    -4.6290    -1.3400 hc         1 HUZ       0.036200
     59 H36         -2.6080    -5.0390     0.1010 hc         1 HUZ       0.036200
     60 H37         -4.5590    -6.5680    -0.1540 hc         1 HUZ       0.032033
     61 H38         -4.7370    -5.5990     1.3250 hc         1 HUZ       0.032033
     62 H39         -5.6760    -5.1860    -0.1290 hc         1 HUZ       0.032033
     63 H40          0.2750    -0.7120    -1.3960 hn         1 HUZ       0.307500
     64 H42         -5.5430     3.0500    -2.8270 hn         1 HUZ       0.349000
     65 C27         -2.5700    -2.2580    -0.2130 c3         1 HUZ       0.157800
     66 H6           4.5190     2.3070     1.1540 hc         1 HUZ       0.039700
     67 C12          9.1330    -0.0280     1.3780 c3         1 HUZ       0.158600
     68 C11          9.5780     0.0770    -1.0410 c3         1 HUZ       0.158600
     69 H31         -2.5500    -2.2510    -1.3110 h1         1 HUZ       0.027700
     70 H32         -1.6110    -2.6620     0.1410 h1         1 HUZ       0.027700
@<TRIPOS>BOND
     1     1     2 ar  
     2     1    20 ar  
     3     1    28 1   
     4     2     3 ar  
     5     2    29 1   
     6     3    19 ar  
     7     3    30 1   
     8     4     7 1   
     9     4    31 1   
    10     4    65 1   
    11     5    17 1   
    12     5    19 ar  
    13     5    20 ar  
    14     6     9 1   
    15     6    13 1   
    16     6    32 1   
    17     6    66 1   
    18     7     8 1   
    19     7    10 1   
    20     7    33 1   
    21     8    17 1   
    22     8    34 1   
    23     8    35 1   
    24     9    16 1   
    25     9    36 1   
    26     9    37 1   
    27    10    24 1   
    28    10    27 2   
    29    11    12 1   
    30    11    24 1   
    31    11    44 1   
    32    11    45 1   
    33    12    13 1   
    34    12    46 1   
    35    12    47 1   
    36    13    14 1   
    37    13    48 1   
    38    14    15 1   
    39    14    49 1   
    40    14    50 1   
    41    15    16 1   
    42    15    51 1   
    43    15    52 1   
    44    16    25 1   
    45    16    53 1   
    46    17    18 2   
    47    18    26 1   
    48    18    54 1   
    49    19    26 1   
    50    20    55 1   
    51    21    22 1   
    52    21    56 1   
    53    21    57 1   
    54    21    65 1   
    55    22    23 1   
    56    22    58 1   
    57    22    59 1   
    58    23    60 1   
    59    23    61 1   
    60    23    62 1   
    61    24    63 1   
    62    25    67 1   
    63    25    68 1   
    64    26    64 1   
    65    38    67 1   
    66    39    67 1   
    67    40    67 1   
    68    41    68 1   
    69    42    68 1   
    70    43    68 1   
    71    65    69 1   
    72    65    70 1   
@<TRIPOS>SUBSTRUCTURE
     1 HUZ         1 TEMP              0 ****  ****    0 ROOT
