@<TRIPOS>MOLECULE
HV0
   68    72     1     0     0
SMALL
bcc


@<TRIPOS>ATOM
      1 C10        197.3990   220.0290   232.5180 cc         1 HV0      -0.401800
      2 C11        198.3280   219.9880   231.3870 c          1 HV0       0.725300
      3 C15        200.3870   221.6140   229.6280 ca         1 HV0      -0.148300
      4 C17        200.5210   222.5630   227.3970 ca         1 HV0      -0.208500
      5 C18        200.1430   223.8350   227.8610 ca         1 HV0       0.203600
      6 C19        199.8730   223.9510   229.2380 ca         1 HV0      -0.208500
      7 C20        200.0050   222.8690   230.0910 ca         1 HV0      -0.069000
      8 N21        200.0320   224.9120   227.0180 nh         1 HV0      -0.700000
      9 C22        200.1710   224.7420   225.5860 c6         1 HV0       0.233800
     10 C01        198.5670   221.5140   234.3450 c3         1 HV0      -0.116400
     11 C02        197.4760   220.6710   233.7780 cc         1 HV0       0.425600
     12 C05        194.3660   219.2790   234.1150 cc         1 HV0      -0.017300
     13 C06        193.6370   218.5120   233.2730 cd         1 HV0      -0.197000
     14 C07        194.1620   218.1680   231.9950 cd         1 HV0       0.171100
     15 C08        195.4040   218.6160   231.6150 cd         1 HV0      -0.228000
     16 C09        196.1410   219.4120   232.5140 cd         1 HV0       0.067700
     17 C14        200.5840   220.4440   230.5610 c3         1 HV0       0.169300
     18 C16        200.6280   221.4880   228.2660 ca         1 HV0      -0.069000
     19 C23        199.5510   225.9120   224.8360 c6         1 HV0      -0.088400
     20 C24        200.1400   227.2840   225.2260 c6         1 HV0      -0.015400
     21 C25        200.8480   227.1750   226.5830 c6         1 HV0      -0.088400
     22 C26        200.0950   226.2670   227.5400 c6         1 HV0       0.233800
     23 C27        201.0770   227.8810   224.2070 ca         1 HV0      -0.062300
     24 C28        200.9790   229.2290   223.8710 ca         1 HV0      -0.119000
     25 C29        201.8690   229.8210   222.9860 ca         1 HV0      -0.115000
     26 C30        202.8700   229.0480   222.4270 ca         1 HV0       0.086100
     27 C31        202.9880   227.7010   222.7250 ca         1 HV0      -0.115000
     28 C32        202.0910   227.1300   223.6150 ca         1 HV0      -0.119000
     29 C34        204.8890   230.1250   221.9640 c3         1 HV0       0.854700
     30 C39        193.8140   217.0080   229.9630 c3         1 HV0       0.120700
     31 F35        204.7150   231.0120   222.9460 f          1 HV0      -0.231300
     32 F36        205.7060   229.1830   222.4400 f          1 HV0      -0.231300
     33 F37        205.5000   230.7310   220.9570 f          1 HV0      -0.231300
     34 N03        196.3870   220.4780   234.4950 nd         1 HV0      -0.592100
     35 N04        195.5910   219.7110   233.7300 na         1 HV0       0.198000
     36 N13        199.6030   220.3650   231.6170 ns         1 HV0      -0.578900
     37 O12        197.9620   219.6200   230.2730 o          1 HV0      -0.623100
     38 O33        203.7370   229.6280   221.5030 os         1 HV0      -0.378900
     39 O38        193.3630   217.4070   231.2450 os         1 HV0      -0.309900
     40 H1         200.7490   222.4010   226.3530 ha         1 HV0       0.126500
     41 H2         199.5380   224.8920   229.6530 ha         1 HV0       0.126500
     42 H3         199.7860   223.0130   231.1430 ha         1 HV0       0.124000
     43 H4         199.6460   223.8350   225.2810 h1         1 HV0       0.040950
     44 H5         201.2210   224.6030   225.2910 h1         1 HV0       0.040950
     45 H6         198.2250   222.0100   235.2500 hc         1 HV0       0.053033
     46 H7         199.4420   220.9160   234.6130 hc         1 HV0       0.053033
     47 H8         198.8910   222.2800   233.6400 hc         1 HV0       0.053033
     48 H9         194.0360   219.5810   235.0980 h4         1 HV0       0.181000
     49 H10        192.6590   218.1640   233.5730 ha         1 HV0       0.166000
     50 H11        195.8410   218.3880   230.6560 ha         1 HV0       0.185000
     51 H12        200.5990   219.5150   229.9870 h1         1 HV0       0.048200
     52 H13        201.5570   220.5170   231.0520 h1         1 HV0       0.048200
     53 H14        200.9220   220.5250   227.8620 ha         1 HV0       0.124000
     54 H15        198.4790   225.9150   225.0430 hc         1 HV0       0.054450
     55 H16        199.6510   225.7310   223.7640 hc         1 HV0       0.054450
     56 H17        199.3080   227.9820   225.3440 hc         1 HV0       0.055700
     57 H18        201.8610   226.7840   226.4510 hc         1 HV0       0.054450
     58 H19        200.9530   228.1650   227.0310 hc         1 HV0       0.054450
     59 H20        200.6240   226.2650   228.4940 h1         1 HV0       0.040950
     60 H21        199.0940   226.6740   227.7360 h1         1 HV0       0.040950
     61 H22        200.1940   229.8330   224.3090 ha         1 HV0       0.139000
     62 H23        201.7720   230.8670   222.7280 ha         1 HV0       0.153000
     63 H24        203.7600   227.0990   222.2640 ha         1 HV0       0.153000
     64 H25        202.1970   226.0770   223.8480 ha         1 HV0       0.139000
     65 H26        193.0230   216.3990   229.5350 h1         1 HV0       0.049700
     66 H27        193.9910   217.8680   229.3120 h1         1 HV0       0.049700
     67 H28        194.7280   216.4130   230.0240 h1         1 HV0       0.049700
     68 H29        199.9090   220.5640   232.5530 hn         1 HV0       0.313500
@<TRIPOS>BOND
     1     1     2 1   
     2     1    11 1   
     3     1    16 2   
     4     2    36 1   
     5     2    37 2   
     6     3     7 ar  
     7     3    17 1   
     8     3    18 ar  
     9     4     5 ar  
    10     4    18 ar  
    11     4    40 1   
    12     5     6 ar  
    13     5     8 1   
    14     6     7 ar  
    15     6    41 1   
    16     7    42 1   
    17     8     9 1   
    18     8    22 1   
    19     9    19 1   
    20     9    43 1   
    21     9    44 1   
    22    10    11 1   
    23    10    45 1   
    24    10    46 1   
    25    10    47 1   
    26    11    34 2   
    27    12    13 2   
    28    12    35 1   
    29    12    48 1   
    30    13    14 1   
    31    13    49 1   
    32    14    15 2   
    33    14    39 1   
    34    15    16 1   
    35    15    50 1   
    36    16    35 1   
    37    17    36 1   
    38    17    51 1   
    39    17    52 1   
    40    18    53 1   
    41    19    20 1   
    42    19    54 1   
    43    19    55 1   
    44    20    21 1   
    45    20    23 1   
    46    20    56 1   
    47    21    22 1   
    48    21    57 1   
    49    21    58 1   
    50    22    59 1   
    51    22    60 1   
    52    23    24 ar  
    53    23    28 ar  
    54    24    25 ar  
    55    24    61 1   
    56    25    26 ar  
    57    25    62 1   
    58    26    27 ar  
    59    26    38 1   
    60    27    28 ar  
    61    27    63 1   
    62    28    64 1   
    63    29    31 1   
    64    29    32 1   
    65    29    33 1   
    66    29    38 1   
    67    30    39 1   
    68    30    65 1   
    69    30    66 1   
    70    30    67 1   
    71    34    35 1   
    72    36    68 1   
@<TRIPOS>SUBSTRUCTURE
     1 HV0         1 TEMP              0 ****  ****    0 ROOT
