@<TRIPOS>MOLECULE
HV0
   68    72     1     0     0
SMALL
No Charge or Current Charge


@<TRIPOS>ATOM
      1 C10        196.9070   219.9340   232.1600 cc         1 HV0      -0.401800
      2 C11        198.2710   219.8880   231.5720 c          1 HV0       0.658300
      3 C15        200.6460   222.1610   230.6530 ca         1 HV0      -0.148300
      4 C17        200.4710   223.1020   228.4110 ca         1 HV0      -0.190500
      5 C18        200.8300   224.3760   228.8940 ca         1 HV0       0.342000
      6 C19        201.0960   224.5260   230.2700 ca         1 HV0      -0.190500
      7 C20        201.0040   223.4300   231.1440 ca         1 HV0      -0.051000
      8 N21        200.9240   225.4860   228.0190 nh         1 HV0      -0.838400
      9 C22        200.1290   225.5640   226.7560 c6         1 HV0       0.233800
     10 C01        197.1060   221.9280   233.8350 c3         1 HV0      -0.116400
     11 C02        196.3720   220.8070   233.1460 cc         1 HV0       0.425600
     12 C05        193.5180   218.8810   232.5760 cc         1 HV0      -0.050000
     13 C06        193.4160   217.8180   231.6730 cd         1 HV0      -0.179000
     14 C07        194.5160   217.3860   230.8510 cd         1 HV0       0.171100
     15 C08        195.7860   218.0390   230.9240 cd         1 HV0      -0.210000
     16 C09        195.8530   219.1160   231.8520 cd         1 HV0       0.017000
     17 C14        200.5380   220.9730   231.5950 c3         1 HV0       0.169300
     18 C16        200.3790   222.0030   229.2820 ca         1 HV0      -0.051000
     19 C23        199.8290   227.0310   226.3590 c6         1 HV0      -0.088400
     20 C24        201.1090   227.9110   226.2100 c6         1 HV0      -0.015400
     21 C25        202.3260   227.2780   226.9400 c6         1 HV0      -0.088400
     22 C26        201.9080   226.5860   228.2590 c6         1 HV0       0.233800
     23 C27        201.4400   228.2350   224.7440 ca         1 HV0      -0.062300
     24 C28        201.5470   229.5760   224.3250 ca         1 HV0      -0.101000
     25 C29        201.8510   229.8810   222.9870 ca         1 HV0      -0.097000
     26 C30        202.0540   228.8570   222.0470 ca         1 HV0       0.086100
     27 C31        201.9500   227.5100   222.4630 ca         1 HV0      -0.097000
     28 C32        201.6460   227.2070   223.8020 ca         1 HV0      -0.101000
     29 C34        202.5850   228.3100   219.6700 c3         1 HV0       0.514000
     30 C39        195.3180   215.8210   229.1420 c3         1 HV0       0.143900
     31 F35        203.6470   227.5060   219.9110 f          1 HV0      -0.110000
     32 F36        201.5110   227.5230   219.4310 f          1 HV0      -0.110000
     33 F37        202.8480   228.9730   218.5220 f          1 HV0      -0.110000
     34 N03        195.1050   220.5750   233.4450 nd         1 HV0      -0.592100
     35 N04        194.7690   219.5070   232.6320 na         1 HV0       0.299400
     36 N13        199.1640   220.8050   232.0630 ns         1 HV0      -0.511900
     37 O12        198.6060   219.0950   230.7070 o          1 HV0      -0.623100
     38 O33        202.3500   229.2370   220.7490 os         1 HV0      -0.402100
     39 O38        194.2850   216.3300   230.0060 os         1 HV0      -0.333100
     40 H1         200.2710   222.9520   227.3550 ha         1 HV0       0.108500
     41 H2         201.3630   225.4980   230.6720 ha         1 HV0       0.108500
     42 H3         201.2070   223.5690   232.2040 ha         1 HV0       0.106000
     43 H4         199.1690   225.0410   226.8810 h1         1 HV0       0.040950
     44 H5         200.6700   225.0620   225.9400 h1         1 HV0       0.040950
     45 H6         196.4470   222.4530   234.5370 hc         1 HV0       0.053033
     46 H7         197.9540   221.5470   234.4150 hc         1 HV0       0.053033
     47 H8         197.4620   222.6710   233.1120 hc         1 HV0       0.053033
     48 H9         192.7360   219.2570   233.2210 h4         1 HV0       0.163000
     49 H10        192.4690   217.2960   231.5870 ha         1 HV0       0.148000
     50 H11        196.6310   217.7390   230.3210 ha         1 HV0       0.167000
     51 H12        200.8840   220.0610   231.0910 h1         1 HV0       0.048200
     52 H13        201.1850   221.1320   232.4680 h1         1 HV0       0.048200
     53 H14        200.0990   221.0270   228.8900 ha         1 HV0       0.106000
     54 H15        199.1850   227.4690   227.1340 hc         1 HV0       0.054450
     55 H16        199.2350   227.0540   225.4360 hc         1 HV0       0.054450
     56 H17        200.8890   228.8580   226.7220 hc         1 HV0       0.055700
     57 H18        202.8180   226.5380   226.2950 hc         1 HV0       0.054450
     58 H19        203.0780   228.0510   227.1470 hc         1 HV0       0.054450
     59 H20        202.8130   226.1840   228.7400 h1         1 HV0       0.040950
     60 H21        201.4780   227.3340   228.9420 h1         1 HV0       0.040950
     61 H22        201.3950   230.3860   225.0350 ha         1 HV0       0.121000
     62 H23        201.9300   230.9200   222.6750 ha         1 HV0       0.135000
     63 H24        202.1010   226.6870   221.7720 ha         1 HV0       0.135000
     64 H25        201.5740   226.1660   224.1050 ha         1 HV0       0.121000
     65 H26        194.9360   214.9810   228.5490 h1         1 HV0       0.049700
     66 H27        195.6640   216.5970   228.4470 h1         1 HV0       0.049700
     67 H28        196.1740   215.4610   229.7260 h1         1 HV0       0.049700
     68 H29        198.8300   221.4350   232.7740 hn         1 HV0       0.313500
@<TRIPOS>BOND
     1     1     2 1   
     2     1    11 1   
     3     1    16 2   
     4     2    36 1   
     5     2    37 2   
     6     3     7 ar  
     7     3    17 1   
     8     3    18 ar  
     9     4     5 ar  
    10     4    18 ar  
    11     4    40 1   
    12     5     6 ar  
    13     5     8 1   
    14     6     7 ar  
    15     6    41 1   
    16     7    42 1   
    17     8     9 1   
    18     8    22 1   
    19     9    19 1   
    20     9    43 1   
    21     9    44 1   
    22    10    11 1   
    23    10    45 1   
    24    10    46 1   
    25    10    47 1   
    26    11    34 2   
    27    12    13 2   
    28    12    35 1   
    29    12    48 1   
    30    13    14 1   
    31    13    49 1   
    32    14    15 2   
    33    14    39 1   
    34    15    16 1   
    35    15    50 1   
    36    16    35 1   
    37    17    36 1   
    38    17    51 1   
    39    17    52 1   
    40    18    53 1   
    41    19    20 1   
    42    19    54 1   
    43    19    55 1   
    44    20    21 1   
    45    20    23 1   
    46    20    56 1   
    47    21    22 1   
    48    21    57 1   
    49    21    58 1   
    50    22    59 1   
    51    22    60 1   
    52    23    24 ar  
    53    23    28 ar  
    54    24    25 ar  
    55    24    61 1   
    56    25    26 ar  
    57    25    62 1   
    58    26    27 ar  
    59    26    38 1   
    60    27    28 ar  
    61    27    63 1   
    62    28    64 1   
    63    29    31 1   
    64    29    32 1   
    65    29    33 1   
    66    29    38 1   
    67    30    39 1   
    68    30    65 1   
    69    30    66 1   
    70    30    67 1   
    71    34    35 1   
    72    36    68 1   
@<TRIPOS>SUBSTRUCTURE
     1 HV0         1 TEMP              0 ****  ****    0 ROOT
