@<TRIPOS>MOLECULE
HV1
   91    94     1     0     0
SMALL
abcg2


@<TRIPOS>ATOM
      1 C4          -2.9500     0.8370    -6.7880 c3         1 HV1      -0.150400
      2 C14         -4.3140     0.4100    -6.2580 c3         1 HV1      -0.067400
      3 N1          -0.5530     0.4700    -6.4130 n          1 HV1      -0.289400
      4 N2          -0.3160     1.3420    -7.4340 ns         1 HV1      -0.358500
      5 N3          -0.4010     4.6550    -8.5550 ns         1 HV1      -0.492900
      6 O50         -2.0290    -0.6630    -5.1580 o          1 HV1      -0.580100
      7 C25         -1.8320     0.1440    -6.0450 c          1 HV1       0.621100
      8 C42         -0.1220     2.6590    -7.2090 c          1 HV1       0.601100
      9 C36         -3.6500     5.9260    -9.0960 c3         1 HV1       0.160900
     10 O37         -2.2600     5.8290    -8.7970 os         1 HV1      -0.455100
     11 C38         -1.7260     4.6080    -8.8020 c          1 HV1       0.633100
     12 O39         -2.3440     3.5840    -9.0050 o          1 HV1      -0.541000
     13 C41          0.3610     3.4440    -8.4250 c3         1 HV1       0.065700
     14 C35          1.8840     3.7430    -8.3710 c3         1 HV1      -0.046000
     15 C47          2.2970     4.3060    -9.7340 c3         1 HV1      -0.092433
     16 C46          2.2580     4.7390    -7.2700 c3         1 HV1      -0.092433
     17 C45          2.6470     2.4390    -8.1320 c3         1 HV1      -0.092433
     18 O44         -0.3060     3.1800    -6.1230 o          1 HV1      -0.612100
     19 C27          0.6210    -0.1130    -5.7900 c3         1 HV1       0.141300
     20 C28          1.3880    -1.0000    -6.7370 ca         1 HV1      -0.100300
     21 C29          0.7270    -1.9230    -7.5420 ca         1 HV1      -0.103500
     22 C30          1.4280    -2.7500    -8.4070 ca         1 HV1      -0.084500
     23 C31          2.8110    -2.6520    -8.4600 ca         1 HV1      -0.016900
     24 BR           3.7770    -3.7690    -9.6380 br         1 HV1      -0.094100
     25 C32          3.4940    -1.7460    -7.6650 ca         1 HV1      -0.084500
     26 C33          2.7730    -0.9240    -6.8100 ca         1 HV1      -0.103500
     27 C1          -5.4760     1.2440    -6.7920 c3         1 HV1       0.120000
     28 O22         -5.5520     1.0480    -8.1760 oh         1 HV1      -0.647000
     29 C15         -6.8050     0.8430    -6.0980 c3         1 HV1      -0.053100
     30 C16         -7.1800    -0.5950    -6.3110 ca         1 HV1      -0.077300
     31 C17         -7.8210    -1.0000    -7.4800 ca         1 HV1      -0.097000
     32 C18         -8.1570    -2.3320    -7.6800 ca         1 HV1      -0.112000
     33 C19         -7.8530    -3.2830    -6.7140 ca         1 HV1      -0.110000
     34 C20         -7.2180    -2.8910    -5.5430 ca         1 HV1      -0.112000
     35 C21         -6.8870    -1.5570    -5.3460 ca         1 HV1      -0.097000
     36 C2          -5.3090     2.7560    -6.5380 c          1 HV1       0.568100
     37 O3          -5.7140     3.5470    -7.3780 o          1 HV1      -0.629100
     38 N4          -4.7770     3.1170    -5.3640 ns         1 HV1      -0.471900
     39 C5          -4.4700     4.4670    -4.9810 c5         1 HV1       0.132000
     40 C6          -5.0010     4.8580    -3.6250 ca         1 HV1      -0.103300
     41 C7          -6.1900     4.4960    -3.0180 ca         1 HV1      -0.083000
     42 C8          -6.4720     5.0000    -1.7510 ca         1 HV1      -0.116000
     43 C9          -5.5730     5.8510    -1.1170 ca         1 HV1      -0.106000
     44 C10         -4.3790     6.2100    -1.7350 ca         1 HV1      -0.097000
     45 C11         -4.0970     5.7050    -2.9940 ca         1 HV1      -0.069300
     46 C12         -2.8960     5.9250    -3.8720 c5         1 HV1      -0.050100
     47 C13         -2.9490     4.7300    -4.8360 c5         1 HV1       0.160300
     48 O14         -2.3400     3.6010    -4.2590 oh         1 HV1      -0.675000
     49 H4C1        -2.8160     1.9170    -6.7070 hc         1 HV1       0.082700
     50 H4C2        -2.8700     0.6220    -7.8560 hc         1 HV1       0.082700
     51 H141        -4.3270     0.4290    -5.1650 hc         1 HV1       0.069700
     52 H142        -4.4970    -0.6330    -6.5190 hc         1 HV1       0.069700
     53 H2          -0.1840     0.9530    -8.3570 hn         1 HV1       0.342500
     54 H271         0.2920    -0.6780    -4.9200 h1         1 HV1       0.079700
     55 H272         1.2600     0.6910    -5.4160 h1         1 HV1       0.079700
     56 H3           0.0130     5.5340    -8.2890 hn         1 HV1       0.340500
     57 H41          0.2010     2.8280    -9.3170 h1         1 HV1       0.073700
     58 H361        -3.8570     5.6240   -10.1230 h1         1 HV1       0.057367
     59 H362        -3.9050     6.9760    -8.9760 h1         1 HV1       0.057367
     60 H363        -4.2530     5.3240    -8.4190 h1         1 HV1       0.057367
     61 H471         1.7720     5.2290    -9.9800 hc         1 HV1       0.043256
     62 H472         2.1020     3.5840   -10.5300 hc         1 HV1       0.043256
     63 H473         3.3660     4.5240    -9.7380 hc         1 HV1       0.043256
     64 H461         1.9560     4.3980    -6.2800 hc         1 HV1       0.043256
     65 H462         3.3420     4.8670    -7.2600 hc         1 HV1       0.043256
     66 H463         1.8340     5.7330    -7.4270 hc         1 HV1       0.043256
     67 H451         3.7180     2.6210    -8.2310 hc         1 HV1       0.043256
     68 H452         2.3820     1.6660    -8.8560 hc         1 HV1       0.043256
     69 H453         2.4830     2.0380    -7.1310 hc         1 HV1       0.043256
     70 H29         -0.3520    -2.0130    -7.5050 ha         1 HV1       0.122000
     71 H33          3.3090    -0.2100    -6.1970 ha         1 HV1       0.122000
     72 H30          0.8930    -3.4590    -9.0240 ha         1 HV1       0.132000
     73 H32          4.5720    -1.6640    -7.7070 ha         1 HV1       0.132000
     74 H22         -5.9210     1.8550    -8.5600 ho         1 HV1       0.472000
     75 H151        -6.7220     1.0490    -5.0270 hc         1 HV1       0.057200
     76 H152        -7.5990     1.4900    -6.4820 hc         1 HV1       0.057200
     77 H17         -8.0680    -0.2660    -8.2360 ha         1 HV1       0.112500
     78 H21         -6.3950    -1.2560    -4.4280 ha         1 HV1       0.112500
     79 H18         -8.6590    -2.6290    -8.5920 ha         1 HV1       0.111500
     80 H19         -8.1170    -4.3210    -6.8700 ha         1 HV1       0.110000
     81 H20         -6.9820    -3.6230    -4.7820 ha         1 HV1       0.111500
     82 H4          -4.4160     2.4010    -4.7530 hn         1 HV1       0.334500
     83 H5          -4.8810     5.1350    -5.7420 h1         1 HV1       0.088700
     84 H13         -2.5000     4.9730    -5.8040 h1         1 HV1       0.047700
     85 H7          -6.8860     3.8280    -3.5120 ha         1 HV1       0.116000
     86 H8          -7.3940     4.7230    -1.2550 ha         1 HV1       0.112000
     87 H9          -5.8020     6.2320    -0.1300 ha         1 HV1       0.111000
     88 H10         -3.6800     6.8670    -1.2310 ha         1 HV1       0.114000
     89 H121        -3.0000     6.8620    -4.4290 hc         1 HV1       0.061200
     90 H122        -1.9510     5.9750    -3.3300 hc         1 HV1       0.061200
     91 H14         -1.6070     3.3210    -4.8270 ho         1 HV1       0.478000
@<TRIPOS>BOND
     1     1     2 1   
     2     1     7 1   
     3     1    49 1   
     4     1    50 1   
     5     2    27 1   
     6     2    51 1   
     7     2    52 1   
     8     3     4 1   
     9     3     7 1   
    10     3    19 1   
    11     4     8 1   
    12     4    53 1   
    13     5    11 1   
    14     5    13 1   
    15     5    56 1   
    16     6     7 2   
    17     8    13 1   
    18     8    18 2   
    19     9    10 1   
    20     9    58 1   
    21     9    59 1   
    22     9    60 1   
    23    10    11 1   
    24    11    12 2   
    25    13    14 1   
    26    13    57 1   
    27    14    15 1   
    28    14    16 1   
    29    14    17 1   
    30    15    61 1   
    31    15    62 1   
    32    15    63 1   
    33    16    64 1   
    34    16    65 1   
    35    16    66 1   
    36    17    67 1   
    37    17    68 1   
    38    17    69 1   
    39    19    20 1   
    40    19    54 1   
    41    19    55 1   
    42    20    21 ar  
    43    20    26 ar  
    44    21    22 ar  
    45    21    70 1   
    46    22    23 ar  
    47    22    72 1   
    48    23    24 1   
    49    23    25 ar  
    50    25    26 ar  
    51    25    73 1   
    52    26    71 1   
    53    27    28 1   
    54    27    29 1   
    55    27    36 1   
    56    28    74 1   
    57    29    30 1   
    58    29    75 1   
    59    29    76 1   
    60    30    31 ar  
    61    30    35 ar  
    62    31    32 ar  
    63    31    77 1   
    64    32    33 ar  
    65    32    79 1   
    66    33    34 ar  
    67    33    80 1   
    68    34    35 ar  
    69    34    81 1   
    70    35    78 1   
    71    36    37 2   
    72    36    38 1   
    73    38    39 1   
    74    38    82 1   
    75    39    40 1   
    76    39    47 1   
    77    39    83 1   
    78    40    41 ar  
    79    40    45 ar  
    80    41    42 ar  
    81    41    85 1   
    82    42    43 ar  
    83    42    86 1   
    84    43    44 ar  
    85    43    87 1   
    86    44    45 ar  
    87    44    88 1   
    88    45    46 1   
    89    46    47 1   
    90    46    89 1   
    91    46    90 1   
    92    47    48 1   
    93    47    84 1   
    94    48    91 1   
@<TRIPOS>SUBSTRUCTURE
     1 HV1         1 TEMP              0 ****  ****    0 ROOT
