@<TRIPOS>MOLECULE
HV1
   91    94     1     0     0
SMALL
No Charge or Current Charge


@<TRIPOS>ATOM
      1 C4          -3.3030     0.2410    -6.8040 c3         1 HV1      -0.150400
      2 C14         -4.6960    -0.0970    -6.1950 c3         1 HV1      -0.067400
      3 N1          -0.8280     0.2550    -6.1950 n          1 HV1      -0.289400
      4 N2          -0.6490     1.2750    -7.2270 ns         1 HV1      -0.358500
      5 N3          -0.0800     4.8990    -7.4640 ns         1 HV1      -0.492900
      6 O50         -2.2470    -1.3540    -5.3390 o          1 HV1      -0.580100
      7 C25         -2.1020    -0.3650    -6.0490 c          1 HV1       0.621100
      8 C42         -0.1600     2.5160    -6.8330 c          1 HV1       0.601100
      9 C36         -1.5730     8.1210    -7.7160 c3         1 HV1       0.160900
     10 O37         -0.8150     6.9790    -7.2760 os         1 HV1      -0.455100
     11 C38         -0.8390     5.8650    -8.0570 c          1 HV1       0.633100
     12 O39         -1.4470     5.7390    -9.1070 o          1 HV1      -0.541000
     13 C41          0.1280     3.5280    -7.9890 c3         1 HV1       0.065700
     14 C35          1.5460     3.3790    -8.6620 c3         1 HV1      -0.046000
     15 C47          1.7450     4.4740    -9.7500 c3         1 HV1      -0.092433
     16 C46          2.6800     3.5200    -7.6090 c3         1 HV1      -0.092433
     17 C45          1.6770     2.0010    -9.3640 c3         1 HV1      -0.092433
     18 O44         -0.0720     2.8280    -5.6470 o          1 HV1      -0.612100
     19 C27          0.3820    -0.3080    -5.5390 c3         1 HV1       0.141300
     20 C28          1.5260    -0.6140    -6.4990 ca         1 HV1      -0.100300
     21 C29          1.3260    -1.4870    -7.5870 ca         1 HV1      -0.103500
     22 C30          2.3750    -1.7510    -8.4860 ca         1 HV1      -0.084500
     23 C31          3.6280    -1.1460    -8.2970 ca         1 HV1      -0.016900
     24 Br           5.0500    -1.4910    -9.5280 br         1 HV1      -0.094100
     25 C32          3.8400    -0.2870    -7.2060 ca         1 HV1      -0.084500
     26 C33          2.7920    -0.0240    -6.3070 ca         1 HV1      -0.103500
     27 C1          -5.9000     0.6830    -6.8190 c3         1 HV1       0.120000
     28 O22         -5.9770     0.3210    -8.2180 oh         1 HV1      -0.647000
     29 C15         -7.2500     0.2910    -6.1420 c3         1 HV1      -0.053100
     30 C16         -7.5530    -1.2080    -6.1020 ca         1 HV1      -0.077300
     31 C17         -8.1240    -1.8520    -7.2180 ca         1 HV1      -0.097000
     32 C18         -8.4070    -3.2290    -7.1760 ca         1 HV1      -0.112000
     33 C19         -8.1250    -3.9700    -6.0160 ca         1 HV1      -0.110000
     34 C20         -7.5620    -3.3340    -4.8980 ca         1 HV1      -0.112000
     35 C21         -7.2790    -1.9570    -4.9400 ca         1 HV1      -0.097000
     36 C2          -5.7490     2.2490    -6.7000 c          1 HV1       0.568100
     37 O3          -6.1640     2.9900    -7.5860 o          1 HV1      -0.629100
     38 N4          -5.0650     2.7270    -5.5950 ns         1 HV1      -0.471900
     39 C5          -4.6840     4.1460    -5.5380 c5         1 HV1       0.132000
     40 C6          -5.1100     4.8730    -4.2890 ca         1 HV1      -0.103300
     41 C7          -6.3880     4.8790    -3.7070 ca         1 HV1      -0.083000
     42 C8          -6.5990     5.6380    -2.5390 ca         1 HV1      -0.116000
     43 C9          -5.5400     6.3810    -1.9750 ca         1 HV1      -0.106000
     44 C10         -4.2670     6.3660    -2.5770 ca         1 HV1      -0.097000
     45 C11         -4.0740     5.6000    -3.7380 ca         1 HV1      -0.069300
     46 C12         -2.7980     5.4630    -4.5300 c5         1 HV1      -0.050100
     47 C13         -3.0950     4.1530    -5.3570 c5         1 HV1       0.160300
     48 O14         -2.5860     3.0010    -4.6590 oh         1 HV1      -0.675000
     49 H4C1        -3.1530     1.3200    -6.9030 hc         1 HV1       0.082700
     50 H4C2        -3.2340    -0.1020    -7.8420 hc         1 HV1       0.082700
     51 H141        -4.6710     0.0780    -5.1130 hc         1 HV1       0.069700
     52 H142        -4.8630    -1.1750    -6.3190 hc         1 HV1       0.069700
     53 H2          -0.6160     0.9990    -8.2050 hn         1 HV1       0.342500
     54 H271         0.1340    -1.2330    -5.0030 h1         1 HV1       0.079700
     55 H272         0.7220     0.4090    -4.7810 h1         1 HV1       0.079700
     56 H3           0.3390     5.1500    -6.5770 hn         1 HV1       0.340500
     57 H41         -0.6340     3.3410    -8.7560 h1         1 HV1       0.073700
     58 H361        -1.2220     8.4720    -8.6950 h1         1 HV1       0.057367
     59 H362        -1.4700     8.9470    -7.0010 h1         1 HV1       0.057367
     60 H363        -2.6400     7.8750    -7.7980 h1         1 HV1       0.057367
     61 H471         1.7670     5.4800    -9.3130 hc         1 HV1       0.043256
     62 H472         0.9360     4.4420   -10.4900 hc         1 HV1       0.043256
     63 H473         2.6930     4.3310   -10.2830 hc         1 HV1       0.043256
     64 H461         2.5980     2.7580    -6.8260 hc         1 HV1       0.043256
     65 H462         3.6650     3.4070    -8.0790 hc         1 HV1       0.043256
     66 H463         2.6540     4.5040    -7.1250 hc         1 HV1       0.043256
     67 H451         2.6340     1.9200    -9.8950 hc         1 HV1       0.043256
     68 H452         0.8740     1.8530   -10.0970 hc         1 HV1       0.043256
     69 H453         1.6400     1.1790    -8.6450 hc         1 HV1       0.043256
     70 H29          0.3560    -1.9550    -7.7410 ha         1 HV1       0.122000
     71 H33          2.9630     0.6460    -5.4670 ha         1 HV1       0.122000
     72 H30          2.2130    -2.4190    -9.3290 ha         1 HV1       0.132000
     73 H32          4.8120     0.1790    -7.0590 ha         1 HV1       0.132000
     74 H22         -6.2560     1.1400    -8.6890 ho         1 HV1       0.472000
     75 H151        -7.2540     0.6880    -5.1190 hc         1 HV1       0.057200
     76 H152        -8.0680     0.8130    -6.6550 hc         1 HV1       0.057200
     77 H17         -8.3450    -1.2860    -8.1200 ha         1 HV1       0.112500
     78 H21         -6.8430    -1.4740    -4.0680 ha         1 HV1       0.112500
     79 H18         -8.8450    -3.7200    -8.0420 ha         1 HV1       0.111500
     80 H19         -8.3450    -5.0350    -5.9840 ha         1 HV1       0.110000
     81 H20         -7.3450    -3.9060    -3.9990 ha         1 HV1       0.111500
     82 H4          -4.6890     2.0530    -4.9400 hn         1 HV1       0.334500
     83 H5          -4.9720     4.7290    -6.4230 h1         1 HV1       0.088700
     84 H13         -2.6150     4.2060    -6.3440 h1         1 HV1       0.047700
     85 H7          -7.2010     4.3080    -4.1500 ha         1 HV1       0.116000
     86 H8          -7.5820     5.6530    -2.0730 ha         1 HV1       0.112000
     87 H9          -5.7080     6.9670    -1.0750 ha         1 HV1       0.111000
     88 H10         -3.4470     6.9390    -2.1500 ha         1 HV1       0.114000
     89 H121        -2.6490     6.3250    -5.1900 hc         1 HV1       0.061200
     90 H122        -1.9050     5.3720    -3.9010 hc         1 HV1       0.061200
     91 H14         -1.6170     2.9470    -4.8790 ho         1 HV1       0.478000
@<TRIPOS>BOND
     1     1     2 1   
     2     1     7 1   
     3     1    49 1   
     4     1    50 1   
     5     2    27 1   
     6     2    51 1   
     7     2    52 1   
     8     3     4 1   
     9     3     7 1   
    10     3    19 1   
    11     4     8 1   
    12     4    53 1   
    13     5    11 1   
    14     5    13 1   
    15     5    56 1   
    16     6     7 2   
    17     8    13 1   
    18     8    18 2   
    19     9    10 1   
    20     9    58 1   
    21     9    59 1   
    22     9    60 1   
    23    10    11 1   
    24    11    12 2   
    25    13    14 1   
    26    13    57 1   
    27    14    15 1   
    28    14    16 1   
    29    14    17 1   
    30    15    61 1   
    31    15    62 1   
    32    15    63 1   
    33    16    64 1   
    34    16    65 1   
    35    16    66 1   
    36    17    67 1   
    37    17    68 1   
    38    17    69 1   
    39    19    20 1   
    40    19    54 1   
    41    19    55 1   
    42    20    21 ar  
    43    20    26 ar  
    44    21    22 ar  
    45    21    70 1   
    46    22    23 ar  
    47    22    72 1   
    48    23    24 1   
    49    23    25 ar  
    50    25    26 ar  
    51    25    73 1   
    52    26    71 1   
    53    27    28 1   
    54    27    29 1   
    55    27    36 1   
    56    28    74 1   
    57    29    30 1   
    58    29    75 1   
    59    29    76 1   
    60    30    31 ar  
    61    30    35 ar  
    62    31    32 ar  
    63    31    77 1   
    64    32    33 ar  
    65    32    79 1   
    66    33    34 ar  
    67    33    80 1   
    68    34    35 ar  
    69    34    81 1   
    70    35    78 1   
    71    36    37 2   
    72    36    38 1   
    73    38    39 1   
    74    38    82 1   
    75    39    40 1   
    76    39    47 1   
    77    39    83 1   
    78    40    41 ar  
    79    40    45 ar  
    80    41    42 ar  
    81    41    85 1   
    82    42    43 ar  
    83    42    86 1   
    84    43    44 ar  
    85    43    87 1   
    86    44    45 ar  
    87    44    88 1   
    88    45    46 1   
    89    46    47 1   
    90    46    89 1   
    91    46    90 1   
    92    47    48 1   
    93    47    84 1   
    94    48    91 1   
@<TRIPOS>SUBSTRUCTURE
     1 HV1         1 TEMP              0 ****  ****    0 ROOT
