@<TRIPOS>MOLECULE
HV2
   13    13     1     0     0
SMALL
bcc


@<TRIPOS>ATOM
      1 C2          -1.4530     0.2850    -0.0070 cy         1 HV2       0.182100
      2 C3          -0.5090    -0.1560     1.1310 cy         1 HV2      -0.206100
      3 C7          -0.5200    -0.1160    -1.1830 cy         1 HV2      -0.206100
      4 O1          -2.6720    -0.3790     0.0590 oh         1 HV2      -0.565800
      5 S4           0.8650    -0.1100    -0.0340 s6         1 HV2       0.988000
      6 O5           1.5050     1.2040    -0.0140 o          1 HV2      -0.574300
      7 O6           1.7090    -1.2960    -0.0550 o          1 HV2      -0.574300
      8 H11         -0.4080     0.4980     1.9940 h1         1 HV2       0.119950
      9 H10         -0.6990    -1.1850     1.4370 h1         1 HV2       0.119950
     10 H12         -0.7150    -1.1330    -1.5240 h1         1 HV2       0.119950
     11 H13         -0.4280     0.5690    -2.0230 h1         1 HV2       0.119950
     12 H8          -3.2750     0.0250    -0.5730 ho         1 HV2       0.418000
     13 H9          -1.5730     1.3720     0.0090 h1         1 HV2       0.058700
@<TRIPOS>BOND
     1     1     2 1   
     2     1     3 1   
     3     1     4 1   
     4     1    13 1   
     5     2     5 1   
     6     2     8 1   
     7     2     9 1   
     8     3     5 1   
     9     3    10 1   
    10     3    11 1   
    11     4    12 1   
    12     5     6 2   
    13     5     7 2   
@<TRIPOS>SUBSTRUCTURE
     1 HV2         1 TEMP              0 ****  ****    0 ROOT
