@<TRIPOS>MOLECULE
HV2
   13    13     1     0     0
SMALL
No Charge or Current Charge


@<TRIPOS>ATOM
      1 C2          -1.6130     0.3020     0.0270 cy         1 HV2       0.205300
      2 C3          -0.4600    -0.0150     1.0510 cy         1 HV2      -0.316900
      3 C7          -0.5050     0.0430    -1.0620 cy         1 HV2      -0.316900
      4 O1          -2.6620    -0.6330     0.0280 oh         1 HV2      -0.628000
      5 S4           0.9530    -0.2500    -0.0430 s6         1 HV2       1.068000
      6 O5           1.8740     0.8940    -0.0320 o          1 HV2      -0.503500
      7 O6           1.4120    -1.6440    -0.0910 o          1 HV2      -0.503500
      8 H11         -0.2560     0.8070     1.7400 h1         1 HV2       0.119950
      9 H10         -0.6280    -0.9320     1.6190 h1         1 HV2       0.119950
     10 H12         -0.6950    -0.8430    -1.6730 h1         1 HV2       0.119950
     11 H13         -0.3290     0.9020    -1.7130 h1         1 HV2       0.119950
     12 H8          -3.2750    -0.3860    -0.7000 ho         1 HV2       0.457000
     13 H9          -1.9900     1.3330     0.0670 h1         1 HV2       0.058700
@<TRIPOS>BOND
     1     1     2 1   
     2     1     3 1   
     3     1     4 1   
     4     1    13 1   
     5     2     5 1   
     6     2     8 1   
     7     2     9 1   
     8     3     5 1   
     9     3    10 1   
    10     3    11 1   
    11     4    12 1   
    12     5     6 2   
    13     5     7 2   
@<TRIPOS>SUBSTRUCTURE
     1 HV2         1 TEMP              0 ****  ****    0 ROOT
