@<TRIPOS>MOLECULE
HV4
   27    28     1     0     0
SMALL
bcc


@<TRIPOS>ATOM
      1 C17         -6.4150    -1.0850     0.1670 c1         1 HV4      -0.164100
      2 C01         -1.4310     2.0650    -0.2240 ca         1 HV4      -0.047500
      3 C02         -2.7700     1.7540    -0.1960 ca         1 HV4      -0.202000
      4 C03         -3.1730     0.4280    -0.0070 ca         1 HV4       0.178100
      5 C04         -2.2080    -0.5680     0.1480 ca         1 HV4      -0.202000
      6 C05         -0.8660    -0.2370     0.1190 ca         1 HV4      -0.047500
      7 C06         -0.4390     1.0820    -0.0660 ca         1 HV4      -0.138800
      8 C07          0.9370     1.5150    -0.1100 ce         1 HV4       0.053800
      9 C08          2.0900     0.8320     0.0170 cd         1 HV4      -0.175600
     10 C09          3.3920     1.5200    -0.0680 c          1 HV4       0.715700
     11 C11          4.0770    -0.7020     0.3020 cs         1 HV4       0.397000
     12 C16         -4.9610    -1.1180     0.1800 c3         1 HV4       0.228500
     13 C18         -7.6150    -1.0830     0.1600 c1         1 HV4      -0.100500
     14 N10          4.4050     0.5920     0.1010 ns         1 HV4      -0.532500
     15 O14          3.5850     2.6970    -0.2540 o          1 HV4      -0.559500
     16 O15         -4.4960     0.2110     0.0110 os         1 HV4      -0.306900
     17 S12          2.3430    -0.8800     0.2940 ss         1 HV4      -0.054200
     18 S13          5.1080    -1.9490     0.5220 s          1 HV4      -0.412400
     19 H1          -1.1370     3.0960    -0.3730 ha         1 HV4       0.139000
     20 H2          -3.5170     2.5270    -0.3190 ha         1 HV4       0.149000
     21 H3          -2.4790    -1.6040     0.2950 ha         1 HV4       0.149000
     22 H4          -0.1630    -1.0490     0.2420 ha         1 HV4       0.139000
     23 H5           1.0700     2.5800    -0.2730 ha         1 HV4       0.148000
     24 H6          -4.6110    -1.5410     1.1270 h1         1 HV4       0.055700
     25 H7          -4.5990    -1.7640    -0.6270 h1         1 HV4       0.055700
     26 H8          -8.6810    -1.0770     0.1520 ha         1 HV4       0.172500
     27 H9           5.3780     0.8730     0.0710 hn         1 HV4       0.360500
@<TRIPOS>BOND
     1     1    12 1   
     2     1    13 3   
     3     2     3 ar  
     4     2     7 ar  
     5     2    19 1   
     6     3     4 ar  
     7     3    20 1   
     8     4     5 ar  
     9     4    16 1   
    10     5     6 ar  
    11     5    21 1   
    12     6     7 ar  
    13     6    22 1   
    14     7     8 1   
    15     8     9 2   
    16     8    23 1   
    17     9    10 1   
    18     9    17 1   
    19    10    14 1   
    20    10    15 2   
    21    11    14 1   
    22    11    17 1   
    23    11    18 2   
    24    12    16 1   
    25    12    24 1   
    26    12    25 1   
    27    13    26 1   
    28    14    27 1   
@<TRIPOS>SUBSTRUCTURE
     1 HV4         1 TEMP              0 ****  ****    0 ROOT
