@<TRIPOS>MOLECULE
HV4
   27    28     1     0     0
SMALL
No Charge or Current Charge


@<TRIPOS>ATOM
      1 C17         -6.4500    -1.1510     0.3380 c1         1 HV4      -0.164100
      2 C01         -1.3860     2.1180     0.0130 ca         1 HV4      -0.029500
      3 C02         -2.7340     1.7620     0.1910 ca         1 HV4      -0.184000
      4 C03         -3.1460     0.4310     0.0260 ca         1 HV4       0.178100
      5 C04         -2.1960    -0.5510    -0.3270 ca         1 HV4      -0.184000
      6 C05         -0.8480    -0.1940    -0.5030 ca         1 HV4      -0.029500
      7 C06         -0.4320     1.1400    -0.3230 ca         1 HV4      -0.138800
      8 C07          0.9910     1.5420    -0.5170 ce         1 HV4       0.003800
      9 C08          2.1460     0.9200    -0.0920 cd         1 HV4      -0.175600
     10 C09          3.5160     1.4200    -0.2940 c          1 HV4       0.573200
     11 C11          3.9390    -0.5830     0.9470 cs         1 HV4       0.330000
     12 C16         -5.0060    -1.1870     0.0700 c3         1 HV4       0.251700
     13 C18         -7.6420    -1.1490     0.5560 c1         1 HV4      -0.188000
     14 N10          4.3670     0.5360     0.2990 ns         1 HV4      -0.398500
     15 O14          3.8570     2.4360    -0.8780 o          1 HV4      -0.484000
     16 O15         -4.4820     0.1440     0.2140 os         1 HV4      -0.330100
     17 S12          2.1660    -0.5850     0.8320 ss         1 HV4      -0.054200
     18 S13          4.8970    -1.7210     1.7050 s          1 HV4      -0.412400
     19 H1          -1.0820     3.1550     0.1460 ha         1 HV4       0.121000
     20 H2          -3.4630     2.5220     0.4580 ha         1 HV4       0.131000
     21 H3          -2.4820    -1.5880    -0.4730 ha         1 HV4       0.131000
     22 H4          -0.1310    -0.9580    -0.7960 ha         1 HV4       0.121000
     23 H5           1.1330     2.4950    -1.0320 ha         1 HV4       0.198000
     24 H6          -4.5280    -1.8740     0.7800 h1         1 HV4       0.055700
     25 H7          -4.8410    -1.5630    -0.9480 h1         1 HV4       0.055700
     26 H8          -8.6960    -1.1340     0.7510 ha         1 HV4       0.260000
     27 H9           5.3570     0.7310     0.2510 hn         1 HV4       0.360500
@<TRIPOS>BOND
     1     1    12 1   
     2     1    13 3   
     3     2     3 ar  
     4     2     7 ar  
     5     2    19 1   
     6     3     4 ar  
     7     3    20 1   
     8     4     5 ar  
     9     4    16 1   
    10     5     6 ar  
    11     5    21 1   
    12     6     7 ar  
    13     6    22 1   
    14     7     8 1   
    15     8     9 2   
    16     8    23 1   
    17     9    10 1   
    18     9    17 1   
    19    10    14 1   
    20    10    15 2   
    21    11    14 1   
    22    11    17 1   
    23    11    18 2   
    24    12    16 1   
    25    12    24 1   
    26    12    25 1   
    27    13    26 1   
    28    14    27 1   
@<TRIPOS>SUBSTRUCTURE
     1 HV4         1 TEMP              0 ****  ****    0 ROOT
