@<TRIPOS>MOLECULE
HV6
   30    30     1     0     0
SMALL
bcc


@<TRIPOS>ATOM
      1 C12        129.1500   141.0310   119.0090 c2         1 HV6       0.132900
      2 C14        128.7080   140.3140   120.2690 c3         1 HV6       0.408800
      3 C01        127.9840   140.6290   110.3160 c3         1 HV6       0.121700
      4 C03        127.8790   140.4140   112.6760 ca         1 HV6       0.230100
      5 C04        128.8400   141.3930   112.8710 ca         1 HV6      -0.306000
      6 C05        129.2440   141.7300   114.1640 ca         1 HV6       0.275100
      7 C06        128.6850   141.0720   115.2870 ca         1 HV6      -0.330600
      8 C07        127.7070   140.0880   115.0440 ca         1 HV6       0.002000
      9 C08        127.3010   139.7580   113.7810 ca         1 HV6      -0.226000
     10 C09        129.1410   141.4130   116.6200 c          1 HV6       0.636900
     11 C11        128.6540   140.7130   117.7930 ce         1 HV6      -0.364200
     12 C15        127.6920   141.1220   121.1030 c3         1 HV6       0.636900
     13 F16        128.2000   142.2930   121.4680 f          1 HV6      -0.210300
     14 F17        126.5970   141.3440   120.3850 f          1 HV6      -0.210300
     15 F18        127.3540   140.4510   122.1980 f          1 HV6      -0.210300
     16 F19        129.7830   140.0640   121.0410 f          1 HV6      -0.194300
     17 F20        128.1290   139.1380   119.9680 f          1 HV6      -0.194300
     18 O10        129.9920   142.3250   116.7760 o          1 HV6      -0.659100
     19 O13        130.1660   142.6770   114.2770 oh         1 HV6      -0.502100
     20 O21        130.0380   141.9630   119.2590 oh         1 HV6      -0.478100
     21 H1         127.4900   140.1600   109.4700 h1         1 HV6       0.048700
     22 H2         127.7910   141.7040   110.2880 h1         1 HV6       0.048700
     23 H3         129.0600   140.4580   110.2390 h1         1 HV6       0.048700
     24 H4         129.3000   141.9180   112.0450 ha         1 HV6       0.157000
     25 H5         127.2480   139.5670   115.8720 ha         1 HV6       0.136000
     26 H6         126.5460   139.0000   113.6210 ha         1 HV6       0.155000
     27 H7         127.9240   139.9270   117.7070 ha         1 HV6       0.169000
     28 H8         130.3440   142.8060   115.2380 ho         1 HV6       0.482000
     29 H9         130.2620   142.3730   118.3790 ho         1 HV6       0.501000
     30 O02        127.4400   140.0280   111.4790 os         1 HV6      -0.307900
@<TRIPOS>BOND
     1     1     2 1   
     2     1    11 2   
     3     1    20 1   
     4     2    12 1   
     5     2    16 1   
     6     2    17 1   
     7     3    21 1   
     8     3    22 1   
     9     3    23 1   
    10     3    30 1   
    11     4     5 ar  
    12     4     9 ar  
    13     4    30 1   
    14     5     6 ar  
    15     5    24 1   
    16     6     7 ar  
    17     6    19 1   
    18     7     8 ar  
    19     7    10 1   
    20     8     9 ar  
    21     8    25 1   
    22     9    26 1   
    23    10    11 1   
    24    10    18 2   
    25    11    27 1   
    26    12    13 1   
    27    12    14 1   
    28    12    15 1   
    29    19    28 1   
    30    20    29 1   
@<TRIPOS>SUBSTRUCTURE
     1 HV6         1 TEMP              0 ****  ****    0 ROOT
