@<TRIPOS>MOLECULE
HV6
   30    30     1     0     0
SMALL
No Charge or Current Charge


@<TRIPOS>ATOM
      1 C12        129.1800   140.9290   119.0880 c2         1 HV6       0.132900
      2 C14        128.5910   140.2600   120.3390 c3         1 HV6       0.166200
      3 C01        127.8680   140.6100   110.2220 c3         1 HV6       0.144900
      4 C03        127.9620   140.3240   112.6710 ca         1 HV6       0.230100
      5 C04        128.7480   141.4750   112.8530 ca         1 HV6      -0.288000
      6 C05        129.1480   141.8550   114.1370 ca         1 HV6       0.275100
      7 C06        128.7670   141.1090   115.2720 ca         1 HV6      -0.330600
      8 C07        127.9910   139.9430   115.0770 ca         1 HV6       0.020000
      9 C08        127.5940   139.5630   113.7860 ca         1 HV6      -0.208000
     10 C09        129.1970   141.5450   116.6500 c          1 HV6       0.636900
     11 C11        128.5940   140.9450   117.8700 ce         1 HV6      -0.414200
     12 C15        127.6250   141.2050   121.1080 c3         1 HV6       0.273000
     13 F16        128.2620   142.3290   121.5150 f          1 HV6      -0.089000
     14 F17        126.5950   141.5940   120.3200 f          1 HV6      -0.089000
     15 F18        127.1050   140.6020   122.2040 f          1 HV6      -0.089000
     16 F19        129.5730   139.8530   121.1840 f          1 HV6      -0.073000
     17 F20        127.9170   139.1350   119.9930 f          1 HV6      -0.073000
     18 O10        130.1230   142.3410   116.7790 o          1 HV6      -0.659100
     19 O13        129.9180   142.9640   114.2680 oh         1 HV6      -0.541100
     20 O21        130.3590   141.5450   119.2720 oh         1 HV6      -0.517100
     21 H1         127.4320   140.1030   109.3520 h1         1 HV6       0.048700
     22 H2         127.4720   141.6330   110.2520 h1         1 HV6       0.048700
     23 H3         128.9550   140.6560   110.0790 h1         1 HV6       0.048700
     24 H4         129.0600   142.0840   112.0110 ha         1 HV6       0.139000
     25 H5         127.6990   139.3060   115.9090 ha         1 HV6       0.118000
     26 H6         126.9970   138.6660   113.6470 ha         1 HV6       0.137000
     27 H7         127.6430   140.4390   117.7300 ha         1 HV6       0.219000
     28 H8         130.1800   142.9810   115.2260 ho         1 HV6       0.521000
     29 H9         130.5550   141.9800   118.3990 ho         1 HV6       0.540000
     30 O02        127.5400   139.8990   111.4290 os         1 HV6      -0.331100
@<TRIPOS>BOND
     1     1     2 1   
     2     1    11 2   
     3     1    20 1   
     4     2    12 1   
     5     2    16 1   
     6     2    17 1   
     7     3    21 1   
     8     3    22 1   
     9     3    23 1   
    10     3    30 1   
    11     4     5 ar  
    12     4     9 ar  
    13     4    30 1   
    14     5     6 ar  
    15     5    24 1   
    16     6     7 ar  
    17     6    19 1   
    18     7     8 ar  
    19     7    10 1   
    20     8     9 ar  
    21     8    25 1   
    22     9    26 1   
    23    10    11 1   
    24    10    18 2   
    25    11    27 1   
    26    12    13 1   
    27    12    14 1   
    28    12    15 1   
    29    19    28 1   
    30    20    29 1   
@<TRIPOS>SUBSTRUCTURE
     1 HV6         1 TEMP              0 ****  ****    0 ROOT
