@<TRIPOS>MOLECULE
HV7
   22    22     1     0     0
SMALL
bcc


@<TRIPOS>ATOM
      1 N            1.6580     0.0830    -3.2700 n8         1 HV7      -0.891800
      2 CB           0.2890    -0.0810    -2.8150 c3         1 HV7       0.212100
      3 CG           0.1810    -0.0760    -1.3100 ca         1 HV7      -0.147300
      4 CD1         -1.0810    -0.1050    -0.6960 ca         1 HV7       0.169100
      5 CE1         -1.2090    -0.0950     0.6830 ca         1 HV7      -0.264000
      6 CD2          1.2860    -0.0440    -0.4790 ca         1 HV7      -0.043000
      7 CE2          1.1860    -0.0310     0.9110 ca         1 HV7      -0.253000
      8 CZ          -0.0740    -0.0560     1.4950 ca         1 HV7       0.176100
      9 OE          -0.3040    -0.0460     2.8240 os         1 HV7      -0.319900
     10 CM           0.8070    -0.0120     3.6960 c3         1 HV7       0.125700
     11 OH          -2.1570    -0.1500    -1.5090 oh         1 HV7      -0.499100
     12 HN1          1.9520     1.0410    -3.1250 hn         1 HV7       0.338300
     13 HN2          1.6910    -0.0640    -4.2700 hn         1 HV7       0.338300
     14 HB1         -0.0780    -1.0390    -3.1980 h1         1 HV7       0.040700
     15 HB2         -0.3940     0.6770    -3.2230 h1         1 HV7       0.040700
     16 HE1         -2.1920    -0.1180     1.1430 ha         1 HV7       0.144000
     17 HD2          2.2720    -0.0290    -0.9270 ha         1 HV7       0.149000
     18 HE2          2.0880    -0.0020     1.5050 ha         1 HV7       0.137000
     19 HM1          0.4060    -0.0150     4.7070 h1         1 HV7       0.040700
     20 HM2          1.4540    -0.8840     3.5720 h1         1 HV7       0.040700
     21 HM3          1.4080     0.8910     3.5610 h1         1 HV7       0.040700
     22 HOH         -2.9710    -0.1590    -0.9930 ho         1 HV7       0.426000
@<TRIPOS>BOND
     1     1     2 1   
     2     1    12 1   
     3     1    13 1   
     4     2     3 1   
     5     2    14 1   
     6     2    15 1   
     7     3     4 ar  
     8     3     6 ar  
     9     4     5 ar  
    10     4    11 1   
    11     5     8 ar  
    12     5    16 1   
    13     6     7 ar  
    14     6    17 1   
    15     7     8 ar  
    16     7    18 1   
    17     8     9 1   
    18     9    10 1   
    19    10    19 1   
    20    10    20 1   
    21    10    21 1   
    22    11    22 1   
@<TRIPOS>SUBSTRUCTURE
     1 HV7         1 TEMP              0 ****  ****    0 ROOT
