@<TRIPOS>MOLECULE
HV7
   22    22     1     0     0
SMALL
No Charge or Current Charge


@<TRIPOS>ATOM
      1 N            1.1860     0.7610    -3.3910 n8         1 HV7      -1.002200
      2 CB           0.5470    -0.4360    -2.8130 c3         1 HV7       0.212100
      3 CG           0.3170    -0.2690    -1.3150 ca         1 HV7      -0.147300
      4 CD1         -0.9510     0.0570    -0.7860 ca         1 HV7       0.169100
      5 CE1         -1.1260     0.1920     0.5990 ca         1 HV7      -0.246000
      6 CD2          1.3990    -0.4580    -0.4320 ca         1 HV7      -0.025000
      7 CE2          1.2200    -0.3230     0.9560 ca         1 HV7      -0.235000
      8 CZ          -0.0480     0.0030     1.4750 ca         1 HV7       0.176100
      9 OE          -0.2850     0.1490     2.8260 os         1 HV7      -0.343100
     10 CM           0.7520    -0.0230     3.8080 c3         1 HV7       0.148900
     11 OH          -2.0240     0.2480    -1.6060 oh         1 HV7      -0.538100
     12 HN1          0.5430     1.5520    -3.2770 hn         1 HV7       0.393500
     13 HN2          1.2480     0.6420    -4.4090 hn         1 HV7       0.393500
     14 HB1          1.2000    -1.3030    -2.9890 h1         1 HV7       0.040700
     15 HB2         -0.4010    -0.6230    -3.3360 h1         1 HV7       0.040700
     16 HE1         -2.1010     0.4430     1.0090 ha         1 HV7       0.126000
     17 HD2          2.3820    -0.7090    -0.8260 ha         1 HV7       0.131000
     18 HE2          2.0760    -0.4760     1.6070 ha         1 HV7       0.119000
     19 HM1          0.3510     0.1370     4.8170 h1         1 HV7       0.040700
     20 HM2          1.1660    -1.0390     3.7650 h1         1 HV7       0.040700
     21 HM3          1.5650     0.6960     3.6480 h1         1 HV7       0.040700
     22 HOH         -2.8010     0.4650    -1.0490 ho         1 HV7       0.465000
@<TRIPOS>BOND
     1     1     2 1   
     2     1    12 1   
     3     1    13 1   
     4     2     3 1   
     5     2    14 1   
     6     2    15 1   
     7     3     4 ar  
     8     3     6 ar  
     9     4     5 ar  
    10     4    11 1   
    11     5     8 ar  
    12     5    16 1   
    13     6     7 ar  
    14     6    17 1   
    15     7     8 ar  
    16     7    18 1   
    17     8     9 1   
    18     9    10 1   
    19    10    19 1   
    20    10    20 1   
    21    10    21 1   
    22    11    22 1   
@<TRIPOS>SUBSTRUCTURE
     1 HV7         1 TEMP              0 ****  ****    0 ROOT
