@<TRIPOS>MOLECULE
HV8
   48    49     1     0     0
SMALL
abcg2


@<TRIPOS>ATOM
      1 N           -2.6420     0.3710     1.4390 n8         1 HV8      -0.993200
      2 CA1         -2.3120     0.3550     0.0280 c3         1 HV8       0.158500
      3 CB1         -3.5100     0.0980    -0.9130 c3         1 HV8      -0.077100
      4 CG1         -4.1910    -1.2060    -0.6140 ca         1 HV8      -0.064300
      5 CD1         -5.3030    -1.2590     0.2250 ca         1 HV8      -0.114000
      6 CD2         -3.6950    -2.4040    -1.1280 ca         1 HV8      -0.114000
      7 CE1         -5.9060    -2.4710     0.5380 ca         1 HV8      -0.113500
      8 CE2         -4.2920    -3.6170    -0.8180 ca         1 HV8      -0.113500
      9 CZ1         -5.4020    -3.6550     0.0180 ca         1 HV8      -0.127000
     10 CM          -1.6200     1.6670    -0.3670 c3         1 HV8       0.204300
     11 OH          -2.5520     2.7060    -0.2000 oh         1 HV8      -0.753000
     12 N2           0.6550     0.9210     0.1970 n7         1 HV8      -0.842400
     13 CA2         -0.3270     1.9560     0.4340 c3         1 HV8       0.008500
     14 CB2          1.7090     0.8520     1.1910 c3         1 HV8       0.217100
     15 CG2          2.8790     0.0590     0.6760 ca         1 HV8      -0.092300
     16 CD4          3.4500     0.3890    -0.5560 ca         1 HV8      -0.064000
     17 CE3          4.5320    -0.3080    -1.0540 ca         1 HV8      -0.184500
     18 CD3          3.4320    -0.9960     1.3830 ca         1 HV8      -0.064000
     19 CE4          4.5260    -1.7120     0.8990 ca         1 HV8      -0.184500
     20 CZ2          5.0810    -1.3710    -0.3290 ca         1 HV8       0.113100
     21 OE2          6.1320    -2.0000    -0.8950 os         1 HV8      -0.351100
     22 CM2          6.7180    -3.0850    -0.2070 c3         1 HV8       0.155900
     23 C            0.2180     3.3530     0.0390 c          1 HV8       0.717000
     24 O            1.3780     3.4750    -0.3640 o          1 HV8      -0.710000
     25 OXT         -0.6120     4.3010     0.1730 o          1 HV8      -0.710000
     26 HN1         -3.3480     1.0760     1.6150 hn         1 HV8       0.390500
     27 HN2A        -3.0500    -0.5140     1.7120 hn         1 HV8       0.390500
     28 HA1         -1.6130    -0.4730    -0.1360 h1         1 HV8       0.043700
     29 HB11        -4.2250     0.9180    -0.8210 hc         1 HV8       0.062200
     30 HB12        -3.1490     0.0990    -1.9460 hc         1 HV8       0.062200
     31 HD1         -5.7070    -0.3390     0.6310 ha         1 HV8       0.114000
     32 HD2         -2.8320    -2.3840    -1.7850 ha         1 HV8       0.114000
     33 HE1         -6.7720    -2.4880     1.1880 ha         1 HV8       0.102500
     34 HE2         -3.8940    -4.5350    -1.2310 ha         1 HV8       0.102500
     35 HZ1         -5.8730    -4.6000     0.2560 ha         1 HV8       0.101000
     36 HM          -1.3260     1.5680    -1.4270 h1         1 HV8       0.026700
     37 HOH         -1.9950     3.5090    -0.0210 ho         1 HV8       0.523000
     38 HN2          0.2070     0.0150     0.1600 hn         1 HV8       0.382000
     39 HA2         -0.6260     2.0140     1.4940 h1         1 HV8       0.037700
     40 HB21         2.0420     1.8670     1.4080 h1         1 HV8       0.040200
     41 HB22         1.3690     0.4290     2.1490 h1         1 HV8       0.040200
     42 HD4          3.0280     1.2110    -1.1200 ha         1 HV8       0.131000
     43 HE3          4.9640    -0.0400    -2.0110 ha         1 HV8       0.107500
     44 HD3          3.0090    -1.2790     2.3410 ha         1 HV8       0.131000
     45 HE4          4.9190    -2.5280     1.4920 ha         1 HV8       0.107500
     46 HM21         7.1350    -2.7840     0.7570 h1         1 HV8       0.029700
     47 HM22         6.0050    -3.8970    -0.0420 h1         1 HV8       0.029700
     48 HM23         7.5260    -3.4520    -0.8360 h1         1 HV8       0.029700
@<TRIPOS>BOND
     1     1     2 1   
     2     1    26 1   
     3     1    27 1   
     4     2     3 1   
     5     2    10 1   
     6     2    28 1   
     7     3     4 1   
     8     3    29 1   
     9     3    30 1   
    10     4     5 ar  
    11     4     6 ar  
    12     5     7 ar  
    13     5    31 1   
    14     6     8 ar  
    15     6    32 1   
    16     7     9 ar  
    17     7    33 1   
    18     8     9 ar  
    19     8    34 1   
    20     9    35 1   
    21    10    11 1   
    22    10    13 1   
    23    10    36 1   
    24    11    37 1   
    25    12    13 1   
    26    12    14 1   
    27    12    38 1   
    28    13    23 1   
    29    13    39 1   
    30    14    15 1   
    31    14    40 1   
    32    14    41 1   
    33    15    16 ar  
    34    15    18 ar  
    35    16    17 ar  
    36    16    42 1   
    37    17    20 ar  
    38    17    43 1   
    39    18    19 ar  
    40    18    44 1   
    41    19    20 ar  
    42    19    45 1   
    43    20    21 1   
    44    21    22 1   
    45    22    46 1   
    46    22    47 1   
    47    22    48 1   
    48    23    24 1   
    49    23    25 1   
@<TRIPOS>SUBSTRUCTURE
     1 HV8         1 TEMP              0 ****  ****    0 ROOT
