@<TRIPOS>MOLECULE
HV8
   48    49     1     0     0
SMALL
No Charge or Current Charge


@<TRIPOS>ATOM
      1 N           -2.5060     0.2650     1.5570 n8         1 HV8      -0.993200
      2 CA1         -2.2180     0.5000     0.1200 c3         1 HV8       0.158500
      3 CB1         -3.4510     0.0880    -0.7290 c3         1 HV8      -0.077100
      4 CG1         -3.8760    -1.3640    -0.5230 ca         1 HV8      -0.064300
      5 CD1         -5.0780    -1.6700     0.1470 ca         1 HV8      -0.114000
      6 CD2         -3.0720    -2.4140    -1.0100 ca         1 HV8      -0.114000
      7 CE1         -5.4670    -3.0080     0.3320 ca         1 HV8      -0.113500
      8 CE2         -3.4610    -3.7520    -0.8250 ca         1 HV8      -0.113500
      9 CZ1         -4.6580    -4.0500    -0.1530 ca         1 HV8      -0.127000
     10 CM          -1.7570     1.9790    -0.1750 c3         1 HV8       0.204300
     11 OH          -2.7670     2.9050     0.2880 oh         1 HV8      -0.753000
     12 N2           0.7080     1.3730     0.0700 n7         1 HV8      -0.842400
     13 CA2         -0.3730     2.3650     0.4550 c3         1 HV8       0.008500
     14 CB2          1.9890     1.5090     0.7910 c3         1 HV8       0.217100
     15 CG2          2.9420     0.3900     0.3910 ca         1 HV8      -0.092300
     16 CD4          3.7360     0.5160    -0.7640 ca         1 HV8      -0.064000
     17 CE3          4.6200    -0.5150    -1.1320 ca         1 HV8      -0.184500
     18 CD3          3.0380    -0.7780     1.1730 ca         1 HV8      -0.064000
     19 CE4          3.9220    -1.8090     0.8060 ca         1 HV8      -0.184500
     20 CZ2          4.7180    -1.6790    -0.3530 ca         1 HV8       0.113100
     21 OE2          5.6020    -2.6560    -0.7620 os         1 HV8      -0.351100
     22 CM2          5.7770    -3.8850    -0.0350 c3         1 HV8       0.155900
     23 C           -0.0760     3.8900     0.1520 c          1 HV8       0.717000
     24 O            0.8550     4.2080    -0.5780 o          1 HV8      -0.710000
     25 OXT         -0.8450     4.7100     0.6410 o          1 HV8      -0.710000
     26 HN1         -3.0660     1.0620     1.8790 hn         1 HV8       0.390500
     27 HN2A        -3.1520    -0.5280     1.6190 hn         1 HV8       0.390500
     28 HA1         -1.4070    -0.1830    -0.1670 h1         1 HV8       0.043700
     29 HB11        -4.2870     0.7640    -0.5090 hc         1 HV8       0.062200
     30 HB12        -3.2130     0.2460    -1.7880 hc         1 HV8       0.062200
     31 HD1         -5.7120    -0.8710     0.5250 ha         1 HV8       0.114000
     32 HD2         -2.1440    -2.1930    -1.5330 ha         1 HV8       0.114000
     33 HE1         -6.3950    -3.2380     0.8510 ha         1 HV8       0.102500
     34 HE2         -2.8340    -4.5570    -1.2030 ha         1 HV8       0.102500
     35 HZ1         -4.9590    -5.0850    -0.0100 ha         1 HV8       0.101000
     36 HM          -1.6500     2.0810    -1.2640 h1         1 HV8       0.026700
     37 HOH         -2.2640     3.7420     0.4960 ho         1 HV8       0.523000
     38 HN2          0.3560     0.4340     0.2800 hn         1 HV8       0.382000
     39 HA2         -0.4990     2.3090     1.5450 h1         1 HV8       0.037700
     40 HB21         2.4640     2.4750     0.5740 h1         1 HV8       0.040200
     41 HB22         1.8230     1.4650     1.8770 h1         1 HV8       0.040200
     42 HD4          3.6660     1.4120    -1.3780 ha         1 HV8       0.131000
     43 HE3          5.2300    -0.4110    -2.0250 ha         1 HV8       0.107500
     44 HD3          2.4280    -0.8860     2.0670 ha         1 HV8       0.131000
     45 HE4          3.9730    -2.6960     1.4300 ha         1 HV8       0.107500
     46 HM21         6.1240    -3.6870     0.9870 h1         1 HV8       0.029700
     47 HM22         4.8350    -4.4460     0.0150 h1         1 HV8       0.029700
     48 HM23         6.5230    -4.5170    -0.5310 h1         1 HV8       0.029700
@<TRIPOS>BOND
     1     1     2 1   
     2     1    26 1   
     3     1    27 1   
     4     2     3 1   
     5     2    10 1   
     6     2    28 1   
     7     3     4 1   
     8     3    29 1   
     9     3    30 1   
    10     4     5 ar  
    11     4     6 ar  
    12     5     7 ar  
    13     5    31 1   
    14     6     8 ar  
    15     6    32 1   
    16     7     9 ar  
    17     7    33 1   
    18     8     9 ar  
    19     8    34 1   
    20     9    35 1   
    21    10    11 1   
    22    10    13 1   
    23    10    36 1   
    24    11    37 1   
    25    12    13 1   
    26    12    14 1   
    27    12    38 1   
    28    13    23 1   
    29    13    39 1   
    30    14    15 1   
    31    14    40 1   
    32    14    41 1   
    33    15    16 ar  
    34    15    18 ar  
    35    16    17 ar  
    36    16    42 1   
    37    17    20 ar  
    38    17    43 1   
    39    18    19 ar  
    40    18    44 1   
    41    19    20 ar  
    42    19    45 1   
    43    20    21 1   
    44    21    22 1   
    45    22    46 1   
    46    22    47 1   
    47    22    48 1   
    48    23    24 1   
    49    23    25 1   
@<TRIPOS>SUBSTRUCTURE
     1 HV8         1 TEMP              0 ****  ****    0 ROOT
