@<TRIPOS>MOLECULE
HV9
   50    52     1     0     0
SMALL
abcg2


@<TRIPOS>ATOM
      1 C01          4.5290     4.7890    -0.3320 c3         1 HV9      -0.058800
      2 C02          4.6670     3.3290    -0.0250 ca         1 HV9      -0.014300
      3 C03          5.0180     2.4200    -1.0220 ca         1 HV9      -0.136500
      4 C04          5.1140     1.0640    -0.7560 ca         1 HV9       0.001500
      5 C05          4.8610     0.6130     0.5300 ca         1 HV9      -0.303500
      6 S06          4.9910    -1.1040     0.9090 sy         1 HV9       1.197300
      7 O07          5.5080    -1.2520     2.2590 o          1 HV9      -0.527500
      8 N08          3.4180    -1.6390     1.0340 ns         1 HV9      -0.599300
      9 C09          2.5150    -1.5480    -0.0210 c          1 HV9       0.676100
     10 N10          1.2630    -1.9180     0.3020 ns         1 HV9      -0.504900
     11 C11          0.1540    -1.7750    -0.6200 c6         1 HV9       0.115700
     12 C12         -0.8890    -2.8580    -0.3570 c6         1 HV9      -0.122900
     13 C13         -2.0880    -2.6750    -1.2820 c6         1 HV9       0.220800
     14 N14         -2.6410    -1.3400    -1.1420 nh         1 HV9      -0.758300
     15 C15         -3.7440    -1.0980    -0.4030 ca         1 HV9       0.393900
     16 N16         -4.0620     0.1750    -0.1470 nb         1 HV9      -0.221000
     17 C17         -5.1570     0.3910     0.5530 ca         1 HV9       0.063300
     18 C18         -5.4430     1.8510     0.7980 c3         1 HV9       0.263700
     19 F19         -5.6140     2.5050    -0.3530 f          1 HV9      -0.104000
     20 F20         -6.5430     2.0340     1.5300 f          1 HV9      -0.104000
     21 F21         -4.4300     2.4360     1.4410 f          1 HV9      -0.104000
     22 C22         -5.9770    -0.6110     1.0290 ca         1 HV9      -0.241000
     23 C23         -5.5560    -1.8970     0.7060 ca         1 HV9       0.155900
     24 N24         -4.4690    -2.1510     0.0110 nb         1 HV9      -0.230000
     25 C25         -1.6870    -0.2930    -1.4640 c6         1 HV9       0.220800
     26 C26         -0.4740    -0.3830    -0.5440 c6         1 HV9      -0.122900
     27 O27          2.8740    -1.1770    -1.1220 o          1 HV9      -0.608100
     28 O28          5.6480    -1.7830    -0.1880 o          1 HV9      -0.527500
     29 C29          4.5210     1.4960     1.5480 ca         1 HV9       0.001500
     30 C30          4.4240     2.8460     1.2610 ca         1 HV9      -0.136500
     31 H1           3.4970     5.0230    -0.6030 hc         1 HV9       0.049700
     32 H2           4.7860     5.4050     0.5280 hc         1 HV9       0.049700
     33 H3           5.1590     5.0850    -1.1690 hc         1 HV9       0.049700
     34 H4           5.2220     2.7760    -2.0240 ha         1 HV9       0.118500
     35 H5           5.3840     0.3770    -1.5450 ha         1 HV9       0.137000
     36 H6           3.1060    -1.8360     1.9770 hn         1 HV9       0.338500
     37 H7           1.0380    -2.1070     1.2670 hn         1 HV9       0.313500
     38 H8           0.5460    -1.9240    -1.6290 h1         1 HV9       0.084700
     39 H9          -0.4530    -3.8460    -0.5190 hc         1 HV9       0.059450
     40 H10         -1.2280    -2.8160     0.6830 hc         1 HV9       0.059450
     41 H11         -1.7770    -2.8040    -2.3230 h1         1 HV9       0.073700
     42 H12         -2.8530    -3.4170    -1.0760 h1         1 HV9       0.073700
     43 H13         -6.8710    -0.4370     1.6060 ha         1 HV9       0.154000
     44 H14         -6.1330    -2.7560     1.0320 h4         1 HV9       0.029100
     45 H15         -1.3750    -0.4310    -2.5040 h1         1 HV9       0.073700
     46 H16         -2.1630     0.6790    -1.3910 h1         1 HV9       0.073700
     47 H17         -0.7780    -0.1700     0.4850 hc         1 HV9       0.059450
     48 H18          0.2610     0.3720    -0.8310 hc         1 HV9       0.059450
     49 H19          4.3320     1.1470     2.5540 ha         1 HV9       0.137000
     50 H20          4.1620     3.5360     2.0530 ha         1 HV9       0.118500
@<TRIPOS>BOND
     1     1     2 1   
     2     1    31 1   
     3     1    32 1   
     4     1    33 1   
     5     2     3 ar  
     6     2    30 ar  
     7     3     4 ar  
     8     3    34 1   
     9     4     5 ar  
    10     4    35 1   
    11     5     6 1   
    12     5    29 ar  
    13     6     7 2   
    14     6     8 1   
    15     6    28 2   
    16     8     9 1   
    17     8    36 1   
    18     9    10 1   
    19     9    27 2   
    20    10    11 1   
    21    10    37 1   
    22    11    12 1   
    23    11    26 1   
    24    11    38 1   
    25    12    13 1   
    26    12    39 1   
    27    12    40 1   
    28    13    14 1   
    29    13    41 1   
    30    13    42 1   
    31    14    15 1   
    32    14    25 1   
    33    15    16 ar  
    34    15    24 ar  
    35    16    17 ar  
    36    17    18 1   
    37    17    22 ar  
    38    18    19 1   
    39    18    20 1   
    40    18    21 1   
    41    22    23 ar  
    42    22    43 1   
    43    23    24 ar  
    44    23    44 1   
    45    25    26 1   
    46    25    45 1   
    47    25    46 1   
    48    26    47 1   
    49    26    48 1   
    50    29    30 ar  
    51    29    49 1   
    52    30    50 1   
@<TRIPOS>SUBSTRUCTURE
     1 HV9         1 TEMP              0 ****  ****    0 ROOT
