@<TRIPOS>MOLECULE
HV9
   50    52     1     0     0
SMALL
No Charge or Current Charge


@<TRIPOS>ATOM
      1 C01          5.1530     4.9720     0.1650 c3         1 HV9      -0.058800
      2 C02          5.2030     3.4530     0.1790 ca         1 HV9      -0.014300
      3 C03          5.1310     2.7290    -1.0250 ca         1 HV9      -0.136500
      4 C04          5.1730     1.3240    -1.0160 ca         1 HV9       0.001500
      5 C05          5.2870     0.6300     0.2070 ca         1 HV9      -0.303500
      6 S06          5.3310    -1.1730     0.2310 sy         1 HV9       1.197300
      7 O07          6.0600    -1.6120     1.4260 o          1 HV9      -0.527500
      8 N08          3.7480    -1.6390     0.4980 ns         1 HV9      -0.599300
      9 C09          2.6860    -1.4100    -0.2970 c          1 HV9       0.676100
     10 N10          1.5240    -1.8910     0.2410 ns         1 HV9      -0.504900
     11 C11          0.1950    -1.7700    -0.3680 c6         1 HV9       0.115700
     12 C12         -0.7500    -2.8530     0.1890 c6         1 HV9      -0.122900
     13 C13         -2.1660    -2.7310    -0.4190 c6         1 HV9       0.220800
     14 N14         -2.7370    -1.3590    -0.2120 nh         1 HV9      -0.758300
     15 C15         -4.1430    -1.1550    -0.0710 ca         1 HV9       0.393900
     16 N16         -4.5980     0.1180    -0.1360 nb         1 HV9      -0.221000
     17 C17         -5.9280     0.3230    -0.0040 ca         1 HV9       0.063300
     18 C18         -6.4490     1.7660    -0.0690 c3         1 HV9       0.263700
     19 F19         -7.5260     1.8710    -0.8800 f          1 HV9      -0.104000
     20 F20         -6.8300     2.2080     1.1510 f          1 HV9      -0.104000
     21 F21         -5.5260     2.6430    -0.5340 f          1 HV9      -0.104000
     22 C22         -6.7990    -0.7640     0.2040 ca         1 HV9      -0.241000
     23 C23         -6.2400    -2.0490     0.2600 ca         1 HV9       0.155900
     24 N24         -4.9160    -2.2470     0.1230 nb         1 HV9      -0.230000
     25 C25         -1.8330    -0.2530    -0.6720 c6         1 HV9       0.220800
     26 C26         -0.4180    -0.3870    -0.0660 c6         1 HV9      -0.122900
     27 O27          2.7370    -0.8410    -1.3720 o          1 HV9      -0.608100
     28 O28          5.6910    -1.6580    -1.1070 o          1 HV9      -0.527500
     29 C29          5.3530     1.3520     1.4160 ca         1 HV9       0.001500
     30 C30          5.3110     2.7570     1.3970 ca         1 HV9      -0.136500
     31 H1           4.1190     5.3290     0.2410 hc         1 HV9       0.049700
     32 H2           5.7180     5.3990     1.0030 hc         1 HV9       0.049700
     33 H3           5.5810     5.3780    -0.7600 hc         1 HV9       0.049700
     34 H4           5.0410     3.2540    -1.9720 ha         1 HV9       0.118500
     35 H5           5.1100     0.7820    -1.9590 ha         1 HV9       0.137000
     36 H6           3.6380    -2.0920     1.3870 hn         1 HV9       0.338500
     37 H7           1.5940    -2.3520     1.1380 hn         1 HV9       0.313500
     38 H8           0.2910    -1.8990    -1.4580 h1         1 HV9       0.084700
     39 H9          -0.3450    -3.8510    -0.0280 hc         1 HV9       0.059450
     40 H10         -0.8160    -2.7710     1.2820 hc         1 HV9       0.059450
     41 H11         -2.1210    -2.9610    -1.4940 h1         1 HV9       0.073700
     42 H12         -2.7870    -3.5090     0.0490 h1         1 HV9       0.073700
     43 H13         -7.8700    -0.6180     0.3190 ha         1 HV9       0.154000
     44 H14         -6.8580    -2.9310     0.4180 h4         1 HV9       0.029100
     45 H15         -1.7610    -0.2610    -1.7710 h1         1 HV9       0.073700
     46 H16         -2.2160     0.7370    -0.3850 h1         1 HV9       0.073700
     47 H17         -0.4710    -0.2270     1.0190 hc         1 HV9       0.059450
     48 H18          0.2250     0.4070    -0.4690 hc         1 HV9       0.059450
     49 H19          5.4350     0.8330     2.3700 ha         1 HV9       0.137000
     50 H20          5.3610     3.3060     2.3350 ha         1 HV9       0.118500
@<TRIPOS>BOND
     1     1     2 1   
     2     1    31 1   
     3     1    32 1   
     4     1    33 1   
     5     2     3 ar  
     6     2    30 ar  
     7     3     4 ar  
     8     3    34 1   
     9     4     5 ar  
    10     4    35 1   
    11     5     6 1   
    12     5    29 ar  
    13     6     7 2   
    14     6     8 1   
    15     6    28 2   
    16     8     9 1   
    17     8    36 1   
    18     9    10 1   
    19     9    27 2   
    20    10    11 1   
    21    10    37 1   
    22    11    12 1   
    23    11    26 1   
    24    11    38 1   
    25    12    13 1   
    26    12    39 1   
    27    12    40 1   
    28    13    14 1   
    29    13    41 1   
    30    13    42 1   
    31    14    15 1   
    32    14    25 1   
    33    15    16 ar  
    34    15    24 ar  
    35    16    17 ar  
    36    17    18 1   
    37    17    22 ar  
    38    18    19 1   
    39    18    20 1   
    40    18    21 1   
    41    22    23 ar  
    42    22    43 1   
    43    23    24 ar  
    44    23    44 1   
    45    25    26 1   
    46    25    45 1   
    47    25    46 1   
    48    26    47 1   
    49    26    48 1   
    50    29    30 ar  
    51    29    49 1   
    52    30    50 1   
@<TRIPOS>SUBSTRUCTURE
     1 HV9         1 TEMP              0 ****  ****    0 ROOT
