@<TRIPOS>MOLECULE
HVA
   19    18     1     0     0
SMALL
bcc


@<TRIPOS>ATOM
      1 N            8.0380    -0.6180    -3.5600 n8         1 HVA      -0.919800
      2 CA           7.4540    -1.8850    -3.9930 c3         1 HVA      -0.013500
      3 CB           7.5720    -1.9450    -5.5470 c3         1 HVA       0.179800
      4 CG1          9.0000    -2.2830    -5.9830 c3         1 HVA      -0.085100
      5 CG2          6.5890    -2.9340    -6.1570 c3         1 HVA      -0.085100
      6 OG3          7.2310    -0.6570    -6.0310 oh         1 HVA      -0.650800
      7 C            8.0600    -3.1260    -3.2950 c          1 HVA       0.912600
      8 O            9.1430    -2.9620    -2.6980 o          1 HVA      -0.835800
      9 OXT          7.4180    -4.1910    -3.3970 o          1 HVA      -0.835800
     10 H            7.5430    -0.2660    -2.7520 hn         1 HVA       0.342300
     11 H2           8.9840    -0.8050    -3.2440 hn         1 HVA       0.342300
     12 HA           6.3830    -1.8530    -3.7640 h1         1 HVA       0.039700
     13 HG11         9.0860    -2.2050    -7.0690 hc         1 HVA       0.030033
     14 HG12         9.7270    -1.5970    -5.5430 hc         1 HVA       0.030033
     15 HG13         9.2850    -3.2980    -5.7030 hc         1 HVA       0.030033
     16 HG21         6.6300    -2.8900    -7.2470 hc         1 HVA       0.030033
     17 HG22         6.8160    -3.9520    -5.8510 hc         1 HVA       0.030033
     18 HG23         5.5660    -2.7100    -5.8480 hc         1 HVA       0.030033
     19 HOG3         7.5670    -0.0710    -5.3240 ho         1 HVA       0.428000
@<TRIPOS>BOND
     1     1     2 1   
     2     1    10 1   
     3     1    11 1   
     4     2     3 1   
     5     2     7 1   
     6     2    12 1   
     7     3     4 1   
     8     3     5 1   
     9     3     6 1   
    10     4    13 1   
    11     4    14 1   
    12     4    15 1   
    13     5    16 1   
    14     5    17 1   
    15     5    18 1   
    16     6    19 1   
    17     7     8 1   
    18     7     9 1   
@<TRIPOS>SUBSTRUCTURE
     1 HVA         1 TEMP              0 ****  ****    0 ROOT
