@<TRIPOS>MOLECULE
HVA
   19    18     1     0     0
SMALL
No Charge or Current Charge


@<TRIPOS>ATOM
      1 N            7.9720    -0.5200    -3.5040 n8         1 HVA      -0.919800
      2 CA           7.4490    -1.8650    -4.0120 c3         1 HVA      -0.013500
      3 CB           7.5990    -1.9580    -5.5650 c3         1 HVA       0.179800
      4 CG1          9.0520    -2.2490    -6.0200 c3         1 HVA      -0.085100
      5 CG2          6.6130    -2.9690    -6.1990 c3         1 HVA      -0.085100
      6 OG3          7.2690    -0.6540    -6.0250 oh         1 HVA      -0.650800
      7 C            7.9780    -3.1790    -3.2940 c          1 HVA       0.912600
      8 O            9.1280    -3.1940    -2.8660 o          1 HVA      -0.835800
      9 OXT          7.1710    -4.0600    -3.0180 o          1 HVA      -0.835800
     10 H            7.7230    -0.4180    -2.5120 hn         1 HVA       0.342300
     11 H2           8.9990    -0.5620    -3.4830 hn         1 HVA       0.342300
     12 HA           6.3700    -1.8430    -3.8070 h1         1 HVA       0.039700
     13 HG11         9.1400    -2.1740    -7.1110 hc         1 HVA       0.030033
     14 HG12         9.7590    -1.5390    -5.5750 hc         1 HVA       0.030033
     15 HG13         9.3590    -3.2620    -5.7340 hc         1 HVA       0.030033
     16 HG21         6.6680    -2.9340    -7.2940 hc         1 HVA       0.030033
     17 HG22         6.8450    -3.9930    -5.8840 hc         1 HVA       0.030033
     18 HG23         5.5790    -2.7470    -5.9050 hc         1 HVA       0.030033
     19 HOG3         7.4190    -0.1290    -5.1980 ho         1 HVA       0.428000
@<TRIPOS>BOND
     1     1     2 1   
     2     1    10 1   
     3     1    11 1   
     4     2     3 1   
     5     2     7 1   
     6     2    12 1   
     7     3     4 1   
     8     3     5 1   
     9     3     6 1   
    10     4    13 1   
    11     4    14 1   
    12     4    15 1   
    13     5    16 1   
    14     5    17 1   
    15     5    18 1   
    16     6    19 1   
    17     7     8 1   
    18     7     9 1   
@<TRIPOS>SUBSTRUCTURE
     1 HVA         1 TEMP              0 ****  ****    0 ROOT
