@<TRIPOS>MOLECULE
HVB
   14    13     1     0     0
SMALL
No Charge or Current Charge


@<TRIPOS>ATOM
      1 C1           1.9170    -0.0060    -0.4460 c3         1 HVB      -0.100100
      2 C2           0.8880    -0.0190     0.7120 c3         1 HVB      -0.172700
      3 C3          -0.5500    -0.0340     0.2500 c2         1 HVB       0.454800
      4 N4          -1.0490    -1.2110    -0.2530 nv         1 HVB      -0.563200
      5 N5          -1.0800     1.1300    -0.2510 nv         1 HVB      -0.547300
      6 H10          1.8080    -0.8960    -1.0790 hc         1 HVB       0.069033
      7 H8           1.7880     0.8820    -1.0770 hc         1 HVB       0.069033
      8 H9           2.9410     0.0040    -0.0500 hc         1 HVB       0.069033
      9 H12          1.0790    -0.8920     1.3490 hc         1 HVB       0.099700
     10 H11          1.0590     0.8550     1.3510 hc         1 HVB       0.099700
     11 H6          -0.6460    -2.0640     0.1130 hn         1 HVB       0.381000
     12 H13         -0.7020     1.9930     0.1180 hn         1 HVB       0.381000
     13 H14         -2.0660     1.1330    -0.4790 hn         1 HVB       0.381000
     14 H7          -2.0350    -1.2400    -0.4790 hn         1 HVB       0.381000
@<TRIPOS>BOND
     1     1     2 1   
     2     1     6 1   
     3     1     7 1   
     4     1     8 1   
     5     2     3 1   
     6     2     9 1   
     7     2    10 1   
     8     3     4 2   
     9     3     5 1   
    10     4    11 1   
    11     4    14 1   
    12     5    12 1   
    13     5    13 1   
@<TRIPOS>SUBSTRUCTURE
     1 HVB         1 TEMP              0 ****  ****    0 ROOT
