@<TRIPOS>MOLECULE
HVB
   14    13     1     0     0
SMALL
bcc


@<TRIPOS>ATOM
      1 C1           1.9040    -0.0070    -0.4520 c3         1 HVB      -0.100100
      2 C2           0.8830    -0.0180     0.6870 c3         1 HVB      -0.172700
      3 C3          -0.5110    -0.0350     0.1500 c2         1 HVB       0.454800
      4 N4          -1.0820    -1.1850    -0.1040 nv         1 HVB      -0.462600
      5 N5          -1.1120     1.1010    -0.1000 nv         1 HVB      -0.446700
      6 H10          1.8100    -0.8910    -1.0810 hc         1 HVB       0.069033
      7 H8           1.7920     0.8760    -1.0800 hc         1 HVB       0.069033
      8 H9           2.9080     0.0030    -0.0340 hc         1 HVB       0.069033
      9 H12          1.0310    -0.8930     1.3190 hc         1 HVB       0.099700
     10 H11          1.0100     0.8610     1.3180 hc         1 HVB       0.099700
     11 H6          -0.6020    -2.0470     0.0960 hn         1 HVB       0.330700
     12 H13         -0.6530     1.9740     0.1010 hn         1 HVB       0.330700
     13 H14         -2.0300     1.1520    -0.5160 hn         1 HVB       0.330700
     14 H7          -1.9960    -1.2580    -0.5250 hn         1 HVB       0.330700
@<TRIPOS>BOND
     1     1     2 1   
     2     1     6 1   
     3     1     7 1   
     4     1     8 1   
     5     2     3 1   
     6     2     9 1   
     7     2    10 1   
     8     3     4 2   
     9     3     5 1   
    10     4    11 1   
    11     4    14 1   
    12     5    12 1   
    13     5    13 1   
@<TRIPOS>SUBSTRUCTURE
     1 HVB         1 TEMP              0 ****  ****    0 ROOT
