@<TRIPOS>MOLECULE
HVC
   24    24     1     0     0
SMALL
bcc


@<TRIPOS>ATOM
      1 CAG         14.3960   -40.9550   -16.8800 c6         1 HVC       0.087100
      2 CAH         13.6310   -40.3530   -18.0720 c6         1 HVC       0.355600
      3 CAI         13.7290   -40.5790   -15.5640 c6         1 HVC       0.072100
      4 CAJ         13.6010   -39.0640   -15.4760 c6         1 HVC       0.089100
      5 CAK         12.8370   -38.5710   -16.6970 c6         1 HVC       0.137400
      6 CAL         14.3800   -40.5300   -19.3940 c3         1 HVC       0.136400
      7 OAA         13.4650   -38.9810   -17.8960 os         1 HVC      -0.376600
      8 OAB         14.4290   -42.3510   -17.0670 oh         1 HVC      -0.613800
      9 OAC         12.3640   -40.9400   -18.1950 oh         1 HVC      -0.620800
     10 OAD         14.5240   -41.1150   -14.5250 oh         1 HVC      -0.609800
     11 OAE         12.8810   -38.6510   -14.3390 oh         1 HVC      -0.591800
     12 OAF         15.6490   -39.9250   -19.3350 oh         1 HVC      -0.587800
     13 HAG1        15.4120   -40.5350   -16.8830 h1         1 HVC       0.080700
     14 HAI1        12.7190   -41.0110   -15.5330 h1         1 HVC       0.057700
     15 HAJ1        14.6090   -38.6240   -15.4870 h1         1 HVC       0.058700
     16 HAK1        12.8200   -37.4800   -16.7200 h1         1 HVC       0.069700
     17 HAK2        11.7990   -38.9190   -16.6460 h1         1 HVC       0.069700
     18 HAL2        13.7640   -40.0850   -20.1880 h1         1 HVC       0.047700
     19 HAL1        14.4480   -41.6010   -19.6070 h1         1 HVC       0.047700
     20 HAB1        14.7400   -42.7540   -16.2480 ho         1 HVC       0.430000
     21 HAC1        12.4300   -41.8710   -17.9490 ho         1 HVC       0.434000
     22 HAD1        13.9640   -41.2910   -13.7630 ho         1 HVC       0.413000
     23 HAE1        13.4440   -38.7510   -13.5660 ho         1 HVC       0.409000
     24 HAF1        16.2720   -40.4720   -19.8200 ho         1 HVC       0.406000
@<TRIPOS>BOND
     1     1     2 1   
     2     1     3 1   
     3     1     8 1   
     4     1    13 1   
     5     2     6 1   
     6     2     7 1   
     7     2     9 1   
     8     3     4 1   
     9     3    10 1   
    10     3    14 1   
    11     4     5 1   
    12     4    11 1   
    13     4    15 1   
    14     5     7 1   
    15     5    16 1   
    16     5    17 1   
    17     6    12 1   
    18     6    18 1   
    19     6    19 1   
    20     8    20 1   
    21     9    21 1   
    22    10    22 1   
    23    11    23 1   
    24    12    24 1   
@<TRIPOS>SUBSTRUCTURE
     1 HVC         1 TEMP              0 ****  ****    0 ROOT
