@<TRIPOS>MOLECULE
HVC
   24    24     1     0     0
SMALL
No Charge or Current Charge


@<TRIPOS>ATOM
      1 CAG         14.3640   -41.1110   -16.8790 c6         1 HVC       0.110300
      2 CAH         13.6720   -40.3690   -18.0840 c6         1 HVC       0.402000
      3 CAI         13.6730   -40.7390   -15.5340 c6         1 HVC       0.095300
      4 CAJ         13.6150   -39.1960   -15.3620 c6         1 HVC       0.112300
      5 CAK         12.8840   -38.5860   -16.5940 c6         1 HVC       0.160600
      6 CAL         14.4960   -40.5380   -19.4220 c3         1 HVC       0.159600
      7 OAA         13.5740   -38.9500   -17.8170 os         1 HVC      -0.423000
      8 OAB         14.3380   -42.5500   -17.0350 oh         1 HVC      -0.736000
      9 OAC         12.3520   -40.8840   -18.2750 oh         1 HVC      -0.743000
     10 OAD         14.3580   -41.3440   -14.4230 oh         1 HVC      -0.732000
     11 OAE         12.9530   -38.8680   -14.1220 oh         1 HVC      -0.714000
     12 OAF         15.8220   -39.9510   -19.3950 oh         1 HVC      -0.710000
     13 HAG1        15.4060   -40.7590   -16.8290 h1         1 HVC       0.080700
     14 HAI1        12.6350   -41.1070   -15.5670 h1         1 HVC       0.057700
     15 HAJ1        14.6450   -38.8060   -15.3520 h1         1 HVC       0.058700
     16 HAK1        12.8690   -37.4890   -16.5150 h1         1 HVC       0.069700
     17 HAK2        11.8420   -38.9350   -16.6360 h1         1 HVC       0.069700
     18 HAL2        13.9070   -40.0870   -20.2320 h1         1 HVC       0.047700
     19 HAL1        14.5690   -41.6120   -19.6430 h1         1 HVC       0.047700
     20 HAB1        14.5390   -42.8970   -16.1300 ho         1 HVC       0.529000
     21 HAC1        12.4640   -41.8480   -18.0960 ho         1 HVC       0.533000
     22 HAD1        14.0600   -40.8240   -13.6360 ho         1 HVC       0.512000
     23 HAE1        13.0630   -37.8980   -13.9730 ho         1 HVC       0.508000
     24 HAF1        16.2050   -40.0610   -20.2970 ho         1 HVC       0.505000
@<TRIPOS>BOND
     1     1     2 1   
     2     1     3 1   
     3     1     8 1   
     4     1    13 1   
     5     2     6 1   
     6     2     7 1   
     7     2     9 1   
     8     3     4 1   
     9     3    10 1   
    10     3    14 1   
    11     4     5 1   
    12     4    11 1   
    13     4    15 1   
    14     5     7 1   
    15     5    16 1   
    16     5    17 1   
    17     6    12 1   
    18     6    18 1   
    19     6    19 1   
    20     8    20 1   
    21     9    21 1   
    22    10    22 1   
    23    11    23 1   
    24    12    24 1   
@<TRIPOS>SUBSTRUCTURE
     1 HVC         1 TEMP              0 ****  ****    0 ROOT
