@<TRIPOS>MOLECULE
HVD
   53    54     1     0     0
SMALL
No Charge or Current Charge


@<TRIPOS>ATOM
      1 C01         -1.3180    -2.7490    -1.7000 c2         1 HVD      -0.114400
      2 C02         -2.0410    -3.4410    -0.5500 c6         1 HVD      -0.046200
      3 C03         -1.4970    -2.9980     0.8260 c6         1 HVD      -0.068400
      4 C04         -1.4190    -1.4520     0.9200 c6         1 HVD      -0.022500
      5 C05         -0.4740    -0.8780    -0.1890 c6         1 HVD       0.028800
      6 C06         -0.6150    -1.6160    -1.5220 c2         1 HVD      -0.246200
      7 C07         -1.4640    -3.4300    -3.0470 c3         1 HVD      -0.056900
      8 C08         -0.6760     0.6520    -0.3770 ca         1 HVD      -0.188300
      9 C09         -1.0300    -0.9500     2.3200 c2         1 HVD      -0.117400
     10 C10          0.0760    -1.7020     3.0470 c3         1 HVD      -0.055900
     11 C11         -1.6390     0.1180     2.8600 c2         1 HVD      -0.308000
     12 C12          0.2640     1.6080     0.1110 ca         1 HVD       0.011700
     13 C13          0.0140     2.9840    -0.0730 ca         1 HVD      -0.244000
     14 C14         -1.1440     3.4240    -0.7190 ca         1 HVD       0.171100
     15 C15         -2.0690     2.4980    -1.2000 ca         1 HVD      -0.189000
     16 C16         -1.8380     1.1290    -1.0370 ca         1 HVD       0.181100
     17 O01         -2.7540     0.2600    -1.5460 oh         1 HVD      -0.550100
     18 O02         -1.3700     4.7560    -0.8850 oh         1 HVD      -0.531100
     19 C17          1.5580     1.2230     0.8310 c3         1 HVD      -0.039100
     20 C18          2.6940     0.8530    -0.1490 c3         1 HVD      -0.075400
     21 C19          3.9800     0.3850     0.5660 c3         1 HVD      -0.076400
     22 C20          5.1140     0.0140    -0.4140 c3         1 HVD      -0.075400
     23 C21          6.3970    -0.4550     0.2990 c3         1 HVD      -0.089100
     24 H01         -3.1180    -3.2350    -0.6180 hc         1 HVD       0.049700
     25 H02         -1.9270    -4.5310    -0.6370 hc         1 HVD       0.049700
     26 H04         -2.1400    -3.3970     1.6230 hc         1 HVD       0.045700
     27 H03         -0.5000    -3.4380     0.9720 hc         1 HVD       0.045700
     28 H10         -2.4330    -1.0840     0.7190 hc         1 HVD       0.059700
     29 H09          0.5520    -1.0890     0.1280 hc         1 HVD       0.070700
     30 H08         -0.0960    -1.1550    -2.3650 ha         1 HVD       0.180000
     31 H05         -2.5180    -3.5050    -3.3370 hc         1 HVD       0.043367
     32 H06         -0.9410    -2.8800    -3.8390 hc         1 HVD       0.043367
     33 H07         -1.0500    -4.4450    -3.0220 hc         1 HVD       0.043367
     34 H11          0.3740    -1.1870     3.9680 hc         1 HVD       0.037700
     35 H13         -0.2460    -2.7100     3.3330 hc         1 HVD       0.037700
     36 H12          0.9740    -1.8010     2.4250 hc         1 HVD       0.037700
     37 H15         -1.3720     0.4920     3.8480 ha         1 HVD       0.165000
     38 H14         -2.4210     0.6630     2.3310 ha         1 HVD       0.165000
     39 H16          0.7330     3.7120     0.2950 ha         1 HVD       0.112000
     40 H17         -2.9650     2.8410    -1.7090 ha         1 HVD       0.142000
     41 H29         -2.3430    -0.6320    -1.4870 ho         1 HVD       0.479000
     42 H30         -0.6190     5.2440    -0.4860 ho         1 HVD       0.464000
     43 H19          1.9000     2.0560     1.4580 hc         1 HVD       0.048700
     44 H18          1.3850     0.4010     1.5320 hc         1 HVD       0.048700
     45 H21          2.3520     0.0630    -0.8270 hc         1 HVD       0.043200
     46 H20          2.9220     1.7260    -0.7730 hc         1 HVD       0.043200
     47 H23          4.3290     1.1800     1.2380 hc         1 HVD       0.036700
     48 H22          3.7470    -0.4850     1.1920 hc         1 HVD       0.036700
     49 H24          4.7680    -0.7810    -1.0860 hc         1 HVD       0.037200
     50 H25          5.3520     0.8820    -1.0410 hc         1 HVD       0.037200
     51 H26          6.1990    -1.3460     0.9080 hc         1 HVD       0.031700
     52 H27          7.1720    -0.7070    -0.4350 hc         1 HVD       0.031700
     53 H28          6.7880     0.3330     0.9540 hc         1 HVD       0.031700
@<TRIPOS>BOND
     1     1     2 1   
     2     1     6 2   
     3     1     7 1   
     4     2     3 1   
     5     2    24 1   
     6     2    25 1   
     7     3     4 1   
     8     3    26 1   
     9     3    27 1   
    10     4     5 1   
    11     4     9 1   
    12     4    28 1   
    13     5     6 1   
    14     5     8 1   
    15     5    29 1   
    16     6    30 1   
    17     7    31 1   
    18     7    32 1   
    19     7    33 1   
    20     8    12 ar  
    21     8    16 ar  
    22     9    10 1   
    23     9    11 2   
    24    10    34 1   
    25    10    35 1   
    26    10    36 1   
    27    11    37 1   
    28    11    38 1   
    29    12    13 ar  
    30    12    19 1   
    31    13    14 ar  
    32    13    39 1   
    33    14    15 ar  
    34    14    18 1   
    35    15    16 ar  
    36    15    40 1   
    37    16    17 1   
    38    17    41 1   
    39    18    42 1   
    40    19    20 1   
    41    19    43 1   
    42    19    44 1   
    43    20    21 1   
    44    20    45 1   
    45    20    46 1   
    46    21    22 1   
    47    21    47 1   
    48    21    48 1   
    49    22    23 1   
    50    22    49 1   
    51    22    50 1   
    52    23    51 1   
    53    23    52 1   
    54    23    53 1   
@<TRIPOS>SUBSTRUCTURE
     1 HVD         1 TEMP              0 ****  ****    0 ROOT
