@<TRIPOS>MOLECULE
HVD
   53    54     1     0     0
SMALL
abcg2


@<TRIPOS>ATOM
      1 C01         -1.2290    -2.7250    -1.6650 c2         1 HVD      -0.114400
      2 C02         -1.9840    -3.3960    -0.5530 c6         1 HVD      -0.046200
      3 C03         -1.5100    -2.9410     0.8180 c6         1 HVD      -0.068400
      4 C04         -1.4560    -1.4170     0.9100 c6         1 HVD      -0.022500
      5 C05         -0.4620    -0.8560    -0.1380 c6         1 HVD       0.028800
      6 C06         -0.5460    -1.5960    -1.4540 c2         1 HVD      -0.246200
      7 C07         -1.2800    -3.3870    -3.0070 c3         1 HVD      -0.056900
      8 C08         -0.6360     0.6380    -0.3330 ca         1 HVD      -0.188300
      9 C09         -1.1030    -0.9300     2.2940 c2         1 HVD      -0.117400
     10 C10          0.0190    -1.6250     3.0110 c3         1 HVD      -0.055900
     11 C11         -1.7570     0.0880     2.8480 c2         1 HVD      -0.308000
     12 C12          0.2730     1.5750     0.1760 ca         1 HVD       0.011700
     13 C13          0.0400     2.9400     0.0310 ca         1 HVD      -0.244000
     14 C14         -1.0980     3.4020    -0.6180 ca         1 HVD       0.171100
     15 C15         -2.0020     2.4940    -1.1480 ca         1 HVD      -0.189000
     16 C16         -1.7660     1.1320    -1.0060 ca         1 HVD       0.181100
     17 O01         -2.7050     0.3190    -1.5440 oh         1 HVD      -0.550100
     18 O02         -1.3640     4.7160    -0.7710 oh         1 HVD      -0.531100
     19 C17          1.5600     1.1680     0.8460 c3         1 HVD      -0.039100
     20 C18          2.6280     0.7250    -0.1560 c3         1 HVD      -0.075400
     21 C19          3.9520     0.3770     0.5100 c3         1 HVD      -0.076400
     22 C20          5.0080    -0.1020    -0.4780 c3         1 HVD      -0.075400
     23 C21          6.3410    -0.4170     0.1850 c3         1 HVD      -0.089100
     24 H01         -3.0560    -3.2020    -0.6750 hc         1 HVD       0.049700
     25 H02         -1.8720    -4.4800    -0.6480 hc         1 HVD       0.049700
     26 H04         -2.1730    -3.3370     1.5910 hc         1 HVD       0.045700
     27 H03         -0.5190    -3.3610     1.0120 hc         1 HVD       0.045700
     28 H10         -2.4540    -1.0340     0.6720 hc         1 HVD       0.059700
     29 H09          0.5480    -1.0350     0.2400 hc         1 HVD       0.070700
     30 H08          0.0140    -1.1550    -2.2760 ha         1 HVD       0.180000
     31 H05         -2.3130    -3.4950    -3.3460 hc         1 HVD       0.043367
     32 H06         -0.7290    -2.8280    -3.7620 hc         1 HVD       0.043367
     33 H07         -0.8640    -4.3950    -2.9540 hc         1 HVD       0.043367
     34 H11          0.3060    -1.0880     3.9140 hc         1 HVD       0.037700
     35 H13         -0.2620    -2.6390     3.3010 hc         1 HVD       0.037700
     36 H12          0.9080    -1.7220     2.3830 hc         1 HVD       0.037700
     37 H15         -1.4980     0.4660     3.8300 ha         1 HVD       0.165000
     38 H14         -2.5710     0.5860     2.3350 ha         1 HVD       0.165000
     39 H16          0.7560     3.6470     0.4370 ha         1 HVD       0.112000
     40 H17         -2.8860     2.8360    -1.6710 ha         1 HVD       0.142000
     41 H29         -2.3470    -0.5740    -1.6620 ho         1 HVD       0.479000
     42 H30         -0.6600     5.2440    -0.3770 ho         1 HVD       0.464000
     43 H19          1.9450     2.0180     1.4130 hc         1 HVD       0.048700
     44 H18          1.3910     0.3770     1.5810 hc         1 HVD       0.048700
     45 H21          2.2680    -0.1410    -0.7210 hc         1 HVD       0.043200
     46 H20          2.7820     1.5210    -0.8900 hc         1 HVD       0.043200
     47 H23          4.3280     1.2540     1.0470 hc         1 HVD       0.036700
     48 H22          3.7880    -0.3960     1.2700 hc         1 HVD       0.036700
     49 H24          4.6390    -0.9930    -0.9960 hc         1 HVD       0.037200
     50 H25          5.1520     0.6590    -1.2510 hc         1 HVD       0.037200
     51 H26          6.2270    -1.1860     0.9520 hc         1 HVD       0.031700
     52 H27          7.0720    -0.7790    -0.5380 hc         1 HVD       0.031700
     53 H28          6.7630     0.4670     0.6670 hc         1 HVD       0.031700
@<TRIPOS>BOND
     1     1     2 1   
     2     1     6 2   
     3     1     7 1   
     4     2     3 1   
     5     2    24 1   
     6     2    25 1   
     7     3     4 1   
     8     3    26 1   
     9     3    27 1   
    10     4     5 1   
    11     4     9 1   
    12     4    28 1   
    13     5     6 1   
    14     5     8 1   
    15     5    29 1   
    16     6    30 1   
    17     7    31 1   
    18     7    32 1   
    19     7    33 1   
    20     8    12 ar  
    21     8    16 ar  
    22     9    10 1   
    23     9    11 2   
    24    10    34 1   
    25    10    35 1   
    26    10    36 1   
    27    11    37 1   
    28    11    38 1   
    29    12    13 ar  
    30    12    19 1   
    31    13    14 ar  
    32    13    39 1   
    33    14    15 ar  
    34    14    18 1   
    35    15    16 ar  
    36    15    40 1   
    37    16    17 1   
    38    17    41 1   
    39    18    42 1   
    40    19    20 1   
    41    19    43 1   
    42    19    44 1   
    43    20    21 1   
    44    20    45 1   
    45    20    46 1   
    46    21    22 1   
    47    21    47 1   
    48    21    48 1   
    49    22    23 1   
    50    22    49 1   
    51    22    50 1   
    52    23    51 1   
    53    23    52 1   
    54    23    53 1   
@<TRIPOS>SUBSTRUCTURE
     1 HVD         1 TEMP              0 ****  ****    0 ROOT
