@<TRIPOS>MOLECULE
HVE
   35    37     1     0     0
SMALL
No Charge or Current Charge


@<TRIPOS>ATOM
      1 C2          -3.9600    -0.1930    -1.0420 c3         1 HVE       0.100600
      2 C3          -3.2180    -0.8720     0.1440 c6         1 HVE      -0.083700
      3 C5          -0.8750    -0.8710    -0.9160 c6         1 HVE       0.225300
      4 C7          -1.5110     0.9950     0.6230 c6         1 HVE       0.225300
      5 C8          -2.6740     0.1410     1.1900 c6         1 HVE      -0.108900
      6 C11          2.3880     2.3510    -0.1530 ca         1 HVE       0.178900
      7 C13          3.2940     0.2650     0.0680 ca         1 HVE       0.144500
      8 C15          3.5100    -2.0220     0.3640 cc         1 HVE      -0.151100
      9 C16          2.1710    -1.6760     0.3320 cd         1 HVE      -0.232200
     10 N1          -5.1840     0.5530    -0.5740 nz         1 HVE      -0.973000
     11 C4          -2.0330    -1.7380    -0.3600 c6         1 HVE      -0.108900
     12 N6          -0.4200     0.1210     0.0990 nh         1 HVE      -0.792300
     13 C9           0.9080     0.5960     0.0460 ca         1 HVE       0.430900
     14 N10          1.1020     1.9250    -0.0950 nb         1 HVE      -0.299000
     15 N12          3.5030     1.5850    -0.0810 nb         1 HVE      -0.198000
     16 N14          4.1850    -0.7920     0.1930 na         1 HVE      -0.308400
     17 C17          2.0260    -0.2520     0.1370 ca         1 HVE      -0.242800
     18 H22         -3.2930     0.5050    -1.5600 hx         1 HVE       0.104200
     19 H23         -4.2710    -0.9550    -1.7650 hx         1 HVE       0.104200
     20 H24         -3.9490    -1.5330     0.6320 hc         1 HVE       0.061700
     21 H27         -0.0520    -1.5340    -1.2180 h1         1 HVE       0.067450
     22 H28         -1.2090    -0.3510    -1.8270 h1         1 HVE       0.067450
     23 H30         -1.8880     1.6560    -0.1720 h1         1 HVE       0.067450
     24 H29         -1.1330     1.6400     1.4310 h1         1 HVE       0.067450
     25 H31         -3.4730     0.7950     1.5600 hc         1 HVE       0.066950
     26 H32         -2.3090    -0.4090     2.0690 hc         1 HVE       0.066950
     27 H34          4.0100    -2.9800     0.4950 h4         1 HVE       0.227000
     28 H35          1.3510    -2.3810     0.4580 ha         1 HVE       0.196000
     29 H19         -5.8520    -0.0450    -0.0630 hn         1 HVE       0.511000
     30 H20         -4.9740     1.3420     0.0550 hn         1 HVE       0.511000
     31 H26         -1.6520    -2.3550     0.4650 hc         1 HVE       0.066950
     32 H25         -2.3740    -2.4400    -1.1330 hc         1 HVE       0.066950
     33 H21          5.1940    -0.6800     0.1700 hn         1 HVE       0.374000
     34 H1          -5.7260     0.9620    -1.3520 hn         1 HVE       0.511000
     35 H33          2.5410     3.4230    -0.2700 h5         1 HVE       0.055100
@<TRIPOS>BOND
     1     1     2 1   
     2     1    10 1   
     3     1    18 1   
     4     1    19 1   
     5     2     5 1   
     6     2    11 1   
     7     2    20 1   
     8     3    11 1   
     9     3    12 1   
    10     3    21 1   
    11     3    22 1   
    12     4     5 1   
    13     4    12 1   
    14     4    23 1   
    15     4    24 1   
    16     5    25 1   
    17     5    26 1   
    18     6    14 ar  
    19     6    15 ar  
    20     6    35 1   
    21     7    15 ar  
    22     7    16 1   
    23     7    17 ar  
    24     8     9 2   
    25     8    16 1   
    26     8    27 1   
    27     9    17 1   
    28     9    28 1   
    29    10    29 1   
    30    10    30 1   
    31    10    34 1   
    32    11    31 1   
    33    11    32 1   
    34    12    13 1   
    35    13    14 ar  
    36    13    17 ar  
    37    16    33 1   
@<TRIPOS>SUBSTRUCTURE
     1 HVE         1 TEMP              0 ****  ****    0 ROOT
