@<TRIPOS>MOLECULE
HVE
   35    37     1     0     0
SMALL
bcc


@<TRIPOS>ATOM
      1 C2          -3.9960    -0.5210    -0.7910 c3         1 HVE       0.128800
      2 C3          -2.9570    -0.6650     0.3140 c6         1 HVE      -0.083700
      3 C5          -0.9010    -0.7260    -1.1410 c6         1 HVE       0.225300
      4 C7          -1.4860     1.3790    -0.1240 c6         1 HVE       0.225300
      5 C8          -2.4280     0.6720     0.8500 c6         1 HVE      -0.108900
      6 C11          2.4520     2.1560     0.6560 ca         1 HVE       0.704900
      7 C13          3.1220     0.0780     0.3740 ca         1 HVE       0.472800
      8 C15          3.2380    -2.1190     0.0720 cc         1 HVE      -0.101100
      9 C16          1.9480    -1.7800    -0.2080 cd         1 HVE      -0.182200
     10 N1          -5.2380     0.1350    -0.3010 nz         1 HVE      -0.835600
     11 C4          -1.7890    -1.5220    -0.1910 c6         1 HVE      -0.108900
     12 N6          -0.4130     0.4740    -0.4960 nh         1 HVE      -0.792300
     13 C9           0.8620     0.6610    -0.0890 ca         1 HVE       0.759200
     14 N10          1.2030     1.8970     0.2900 nb         1 HVE      -0.825000
     15 N12          3.4690     1.3230     0.7110 nb         1 HVE      -0.724000
     16 N14          3.9410    -0.9960     0.4160 na         1 HVE      -0.258100
     17 C17          1.8480    -0.3580    -0.0350 ca         1 HVE      -0.373400
     18 H22         -3.6580     0.0670    -1.6420 hx         1 HVE       0.104200
     19 H23         -4.3000    -1.4980    -1.1620 hx         1 HVE       0.104200
     20 H24         -3.4400    -1.2020     1.1360 hc         1 HVE       0.061700
     21 H27         -0.0790    -1.3190    -1.5240 h1         1 HVE       0.067450
     22 H28         -1.4720    -0.4180    -2.0230 h1         1 HVE       0.067450
     23 H30         -2.0150     1.6970    -1.0280 h1         1 HVE       0.067450
     24 H29         -1.0750     2.2730     0.3340 h1         1 HVE       0.067450
     25 H31         -3.2390     1.3510     1.1300 hc         1 HVE       0.066950
     26 H32         -1.8810     0.4740     1.7750 hc         1 HVE       0.066950
     27 H34          3.7120    -3.0860     0.0680 h4         1 HVE       0.177000
     28 H35          1.1850    -2.4860    -0.4860 ha         1 HVE       0.146000
     29 H19         -5.6420    -0.3660     0.4910 hn         1 HVE       0.455800
     30 H20         -5.0830     1.0960    -0.0010 hn         1 HVE       0.455800
     31 H26         -1.1960    -1.8510     0.6660 hc         1 HVE       0.066950
     32 H25         -2.1570    -2.4230    -0.6880 hc         1 HVE       0.066950
     33 H21          4.9120    -0.9720     0.6820 hn         1 HVE       0.323700
     34 H1          -5.9520     0.1670    -1.0260 hn         1 HVE       0.455800
     35 H33          2.6540     3.1840     0.9420 h5         1 HVE       0.055100
@<TRIPOS>BOND
     1     1     2 1   
     2     1    10 1   
     3     1    18 1   
     4     1    19 1   
     5     2     5 1   
     6     2    11 1   
     7     2    20 1   
     8     3    11 1   
     9     3    12 1   
    10     3    21 1   
    11     3    22 1   
    12     4     5 1   
    13     4    12 1   
    14     4    23 1   
    15     4    24 1   
    16     5    25 1   
    17     5    26 1   
    18     6    14 ar  
    19     6    15 ar  
    20     6    35 1   
    21     7    15 ar  
    22     7    16 1   
    23     7    17 ar  
    24     8     9 2   
    25     8    16 1   
    26     8    27 1   
    27     9    17 1   
    28     9    28 1   
    29    10    29 1   
    30    10    30 1   
    31    10    34 1   
    32    11    31 1   
    33    11    32 1   
    34    12    13 1   
    35    13    14 ar  
    36    13    17 ar  
    37    16    33 1   
@<TRIPOS>SUBSTRUCTURE
     1 HVE         1 TEMP              0 ****  ****    0 ROOT
