@<TRIPOS>MOLECULE
HVF
   58    60     1     0     0
SMALL
No Charge or Current Charge


@<TRIPOS>ATOM
      1 C10        -14.1610   -13.6690    27.0680 c2         1 HVF      -0.236200
      2 C13        -15.8400   -11.9580    25.9360 c6         1 HVF      -0.096000
      3 C15        -15.8640   -12.8490    24.6160 c          1 HVF       0.649300
      4 C17        -16.2550   -15.3560    25.3810 c          1 HVF       0.613200
      5 C21        -14.5650   -16.3750    24.0490 c5         1 HVF       0.120900
      6 C22        -13.1710   -16.8400    24.5520 c3         1 HVF       0.160600
      7 C24        -14.6610   -14.8590    23.8060 c2         1 HVF       0.226900
      8 C01        -20.7370   -12.1430    29.3770 c3         1 HVF      -0.085100
      9 C02        -19.6250   -11.7020    28.3880 c6         1 HVF      -0.061700
     10 C03        -19.5940   -12.6110    27.1270 c6         1 HVF      -0.072400
     11 C04        -18.4590   -12.2080    26.1490 c6         1 HVF      -0.062400
     12 C05        -17.0800   -12.2200    26.8750 c6         1 HVF      -0.062700
     13 C06        -17.1320   -11.2250    28.0790 c6         1 HVF      -0.024500
     14 C07        -15.7700   -11.0730    28.7420 c2         1 HVF      -0.203200
     15 C08        -14.6250   -11.4950    28.1760 c2         1 HVF      -0.219200
     16 C09        -14.5510   -12.2130    26.8270 c6         1 HVF       0.023700
     17 C11        -14.5970   -14.4210    28.0940 c2         1 HVF      -0.190200
     18 C12        -14.1880   -15.8510    28.3690 c3         1 HVF      -0.058900
     19 C14        -15.8080   -10.4490    25.4640 c3         1 HVF      -0.081100
     20 C16        -15.6050   -14.3140    24.5920 ce         1 HVF      -0.443400
     21 N19        -15.6350   -16.5550    25.0590 n          1 HVF      -0.439800
     22 O23        -12.2140   -16.8820    23.4810 oh         1 HVF      -0.655000
     23 O25        -13.9250   -14.1800    22.9150 oh         1 HVF      -0.507100
     24 O26        -15.8710   -12.3120    23.5110 o          1 HVF      -0.617100
     25 C27        -18.2330   -11.6590    29.0800 c6         1 HVF      -0.064400
     26 H1         -13.4410   -14.0810    26.3610 ha         1 HVF       0.160000
     27 H3         -15.5700   -18.6720    25.1180 h1         1 HVF       0.045367
     28 H4         -15.9840   -17.8830    26.6680 h1         1 HVF       0.045367
     29 H5         -17.1910   -17.9580    25.3500 h1         1 HVF       0.045367
     30 H6         -14.8090   -16.9300    23.1340 h1         1 HVF       0.098700
     31 H7         -12.8320   -16.1620    25.3460 h1         1 HVF       0.036700
     32 H8         -13.2750   -17.8400    24.9930 h1         1 HVF       0.036700
     33 H9         -20.7850   -11.4720    30.2430 hc         1 HVF       0.032033
     34 H10        -21.7220   -12.1310    28.8950 hc         1 HVF       0.032033
     35 H11        -20.5590   -13.1590    29.7500 hc         1 HVF       0.032033
     36 H12        -19.8860   -10.6820    28.0710 hc         1 HVF       0.039700
     37 H13        -19.4580   -13.6590    27.4290 hc         1 HVF       0.045200
     38 H14        -20.5600   -12.5620    26.6070 hc         1 HVF       0.045200
     39 H15        -18.4600   -12.9020    25.2990 hc         1 HVF       0.036700
     40 H16        -18.6680   -11.2120    25.7370 hc         1 HVF       0.036700
     41 H17        -16.9530   -13.2100    27.3210 hc         1 HVF       0.095700
     42 H18        -17.4200   -10.2310    27.7100 hc         1 HVF       0.052700
     43 H19        -15.7540   -10.5730    29.7120 ha         1 HVF       0.172000
     44 H20        -13.6730   -11.3510    28.6900 ha         1 HVF       0.173000
     45 H21        -13.7020   -11.7660    26.2900 hc         1 HVF       0.059700
     46 H23        -15.2990   -14.0160    28.8250 ha         1 HVF       0.180000
     47 H24        -15.0650   -16.5080    28.3920 hc         1 HVF       0.038367
     48 H25        -13.5020   -16.2330    27.6050 hc         1 HVF       0.038367
     49 H26        -13.6850   -15.9330    29.3400 hc         1 HVF       0.038367
     50 H27        -15.7040    -9.7410    26.2930 hc         1 HVF       0.044700
     51 H28        -14.9550   -10.2560    24.8020 hc         1 HVF       0.044700
     52 H29        -16.7150   -10.1730    24.9130 hc         1 HVF       0.044700
     53 H31        -11.3580   -17.1700    23.8700 ho         1 HVF       0.452000
     54 H32        -18.2640   -10.9560    29.9240 hc         1 HVF       0.042200
     55 H33        -17.9880   -12.6440    29.5020 hc         1 HVF       0.042200
     56 H2         -14.3540   -13.2940    22.8500 ho         1 HVF       0.543000
     57 O18        -17.2220   -15.2530    26.1130 o          1 HVF      -0.546000
     58 C20        -16.1240   -17.8450    25.5800 c3         1 HVF       0.101300
@<TRIPOS>BOND
     1     1    16 1   
     2     1    17 2   
     3     1    26 1   
     4     2     3 1   
     5     2    12 1   
     6     2    16 1   
     7     2    19 1   
     8     3    20 1   
     9     3    24 2   
    10     4    20 1   
    11     4    21 1   
    12     4    57 2   
    13     5     6 1   
    14     5     7 1   
    15     5    21 1   
    16     5    30 1   
    17     6    22 1   
    18     6    31 1   
    19     6    32 1   
    20     7    20 2   
    21     7    23 1   
    22     8     9 1   
    23     8    33 1   
    24     8    34 1   
    25     8    35 1   
    26     9    10 1   
    27     9    25 1   
    28     9    36 1   
    29    10    11 1   
    30    10    37 1   
    31    10    38 1   
    32    11    12 1   
    33    11    39 1   
    34    11    40 1   
    35    12    13 1   
    36    12    41 1   
    37    13    14 1   
    38    13    25 1   
    39    13    42 1   
    40    14    15 2   
    41    14    43 1   
    42    15    16 1   
    43    15    44 1   
    44    16    45 1   
    45    17    18 1   
    46    17    46 1   
    47    18    47 1   
    48    18    48 1   
    49    18    49 1   
    50    19    50 1   
    51    19    51 1   
    52    19    52 1   
    53    21    58 1   
    54    22    53 1   
    55    23    56 1   
    56    25    54 1   
    57    25    55 1   
    58    27    58 1   
    59    28    58 1   
    60    29    58 1   
@<TRIPOS>SUBSTRUCTURE
     1 HVF         1 TEMP              0 ****  ****    0 ROOT
