@<TRIPOS>MOLECULE
HVF
   58    60     1     0     0
SMALL
abcg2


@<TRIPOS>ATOM
      1 C10        -13.8520   -13.3080    27.2690 c2         1 HVF      -0.236200
      2 C13        -15.6990   -11.8470    26.1460 c6         1 HVF      -0.096000
      3 C15        -15.4130   -12.7970    24.9770 c          1 HVF       0.649300
      4 C17        -16.1170   -15.2930    25.8790 c          1 HVF       0.613200
      5 C21        -15.0220   -16.4240    24.1250 c5         1 HVF       0.120900
      6 C22        -13.6370   -17.0730    24.2400 c3         1 HVF       0.160600
      7 C24        -14.9650   -14.9440    23.9230 c2         1 HVF       0.226900
      8 C01        -20.8890   -12.3930    28.8760 c3         1 HVF      -0.085100
      9 C02        -19.7150   -11.8810    28.0460 c6         1 HVF      -0.061700
     10 C03        -19.4420   -12.7820    26.8380 c6         1 HVF      -0.072400
     11 C04        -18.2370   -12.3130    26.0200 c6         1 HVF      -0.062400
     12 C05        -16.9930   -12.2050    26.9060 c6         1 HVF      -0.062700
     13 C06        -17.2620   -11.2310    28.0590 c6         1 HVF      -0.024500
     14 C07        -16.0330   -11.0140    28.8850 c2         1 HVF      -0.203200
     15 C08        -14.8090   -11.3330    28.4770 c2         1 HVF      -0.219200
     16 C09        -14.4680   -11.9340    27.1400 c6         1 HVF       0.023700
     17 C11        -14.0440   -14.1650    28.2650 c2         1 HVF      -0.190200
     18 C12        -13.4690   -15.5440    28.3140 c3         1 HVF      -0.058900
     19 C14        -15.7550   -10.4090    25.6040 c3         1 HVF      -0.081100
     20 C16        -15.5440   -14.2540    24.9670 ce         1 HVF      -0.443400
     21 N19        -15.7650   -16.5120    25.3610 n          1 HVF      -0.439800
     22 O23        -13.0880   -17.1890    22.9340 oh         1 HVF      -0.655000
     23 O25        -14.3710   -14.4360    22.8790 oh         1 HVF      -0.507100
     24 O26        -14.9270   -12.2850    23.9450 o          1 HVF      -0.617100
     25 C27        -18.4480   -11.7330    28.8930 c6         1 HVF      -0.064400
     26 H1         -13.2120   -13.6110    26.4450 ha         1 HVF       0.160000
     27 H3         -16.7170   -18.3480    25.0570 h1         1 HVF       0.045367
     28 H4         -15.4760   -18.3650    26.3270 h1         1 HVF       0.045367
     29 H5         -17.0260   -17.5570    26.6180 h1         1 HVF       0.045367
     30 H6         -15.5650   -16.9030    23.3010 h1         1 HVF       0.098700
     31 H7         -13.0030   -16.4630    24.8920 h1         1 HVF       0.036700
     32 H8         -13.7590   -18.0570    24.7010 h1         1 HVF       0.036700
     33 H9         -21.0950   -11.7300    29.7200 hc         1 HVF       0.032033
     34 H10        -21.7970   -12.4660    28.2730 hc         1 HVF       0.032033
     35 H11        -20.6720   -13.3880    29.2760 hc         1 HVF       0.032033
     36 H12        -19.9720   -10.8840    27.6660 hc         1 HVF       0.039700
     37 H13        -19.2530   -13.8000    27.1940 hc         1 HVF       0.045200
     38 H14        -20.3330   -12.8260    26.2040 hc         1 HVF       0.045200
     39 H15        -18.0620   -13.0100    25.1970 hc         1 HVF       0.036700
     40 H16        -18.4620   -11.3420    25.5690 hc         1 HVF       0.036700
     41 H17        -16.8330   -13.1820    27.3530 hc         1 HVF       0.095700
     42 H18        -17.5660   -10.2600    27.6430 hc         1 HVF       0.052700
     43 H19        -16.1680   -10.5590    29.8620 ha         1 HVF       0.172000
     44 H20        -13.9600   -11.1580    29.1310 ha         1 HVF       0.173000
     45 H21        -13.6940   -11.3010    26.6910 hc         1 HVF       0.059700
     46 H23        -14.6890   -13.8780    29.0910 ha         1 HVF       0.180000
     47 H24        -14.2700   -16.2900    28.3320 hc         1 HVF       0.038367
     48 H25        -12.8390   -15.7450    27.4460 hc         1 HVF       0.038367
     49 H26        -12.8750   -15.6990    29.2200 hc         1 HVF       0.038367
     50 H27        -15.8660    -9.7080    26.4290 hc         1 HVF       0.044700
     51 H28        -14.8430   -10.1590    25.0690 hc         1 HVF       0.044700
     52 H29        -16.5950   -10.2730    24.9220 hc         1 HVF       0.044700
     53 H31        -12.1750   -17.4900    23.0150 ho         1 HVF       0.452000
     54 H32        -18.6310   -11.0420    29.7230 hc         1 HVF       0.042200
     55 H33        -18.1920   -12.7030    29.3370 hc         1 HVF       0.042200
     56 H2         -14.4640   -13.4320    23.0270 ho         1 HVF       0.543000
     57 O18        -16.8090   -15.1770    26.8830 o          1 HVF      -0.546000
     58 C20        -16.2680   -17.7710    25.8680 c3         1 HVF       0.101300
@<TRIPOS>BOND
     1     1    16 1   
     2     1    17 2   
     3     1    26 1   
     4     2     3 1   
     5     2    12 1   
     6     2    16 1   
     7     2    19 1   
     8     3    20 1   
     9     3    24 2   
    10     4    20 1   
    11     4    21 1   
    12     4    57 2   
    13     5     6 1   
    14     5     7 1   
    15     5    21 1   
    16     5    30 1   
    17     6    22 1   
    18     6    31 1   
    19     6    32 1   
    20     7    20 2   
    21     7    23 1   
    22     8     9 1   
    23     8    33 1   
    24     8    34 1   
    25     8    35 1   
    26     9    10 1   
    27     9    25 1   
    28     9    36 1   
    29    10    11 1   
    30    10    37 1   
    31    10    38 1   
    32    11    12 1   
    33    11    39 1   
    34    11    40 1   
    35    12    13 1   
    36    12    41 1   
    37    13    14 1   
    38    13    25 1   
    39    13    42 1   
    40    14    15 2   
    41    14    43 1   
    42    15    16 1   
    43    15    44 1   
    44    16    45 1   
    45    17    18 1   
    46    17    46 1   
    47    18    47 1   
    48    18    48 1   
    49    18    49 1   
    50    19    50 1   
    51    19    51 1   
    52    19    52 1   
    53    21    58 1   
    54    22    53 1   
    55    23    56 1   
    56    25    54 1   
    57    25    55 1   
    58    27    58 1   
    59    28    58 1   
    60    29    58 1   
@<TRIPOS>SUBSTRUCTURE
     1 HVF         1 TEMP              0 ****  ****    0 ROOT
