@<TRIPOS>MOLECULE
HVG
   23    23     1     0     0
SMALL
No Charge or Current Charge


@<TRIPOS>ATOM
      1 C7           2.8420     1.1560     0.5180 c          1 HVG       0.737600
      2 C6          -1.3080     0.1930    -0.3840 ca         1 HVG      -0.118300
      3 C1           0.3970     1.7820     0.3390 ca         1 HVG      -0.135000
      4 C5           1.0540    -0.4830    -0.2910 ca         1 HVG      -0.101600
      5 C4           1.4080     0.8110     0.1730 ca         1 HVG      -0.111600
      6 C3          -0.3020    -0.7780    -0.5570 ca         1 HVG      -0.098000
      7 C2          -0.9450     1.4780     0.0630 ca         1 HVG      -0.172000
      8 C9          -3.6500    -0.1670     0.6450 c          1 HVG       0.735000
      9 C10         -2.7700    -0.1530    -0.6870 c3         1 HVG       0.062800
     10 N11         -3.2530     0.6940    -1.8360 n8         1 HVG      -1.015200
     11 O12          3.4070     0.4940     1.3780 o          1 HVG      -0.760500
     12 O13          1.9370    -2.6500    -0.0260 o          1 HVG      -0.756000
     13 O15          3.3360     2.1560     0.0130 o          1 HVG      -0.760500
     14 O16          3.0060    -1.3050    -1.3230 o          1 HVG      -0.756000
     15 H1           0.6570     2.7760     0.6960 ha         1 HVG       0.072000
     16 H2          -0.5680    -1.7710    -0.9130 ha         1 HVG       0.106000
     17 H3          -1.7050     2.2430     0.2030 ha         1 HVG       0.051000
     18 H4          -2.7910    -1.1880    -1.0570 h1         1 HVG       0.036700
     19 H5          -3.2490     1.6710    -1.5240 hn         1 HVG       0.373000
     20 H6          -2.5430     0.6710    -2.5760 hn         1 HVG       0.373000
     21 C8           2.1040    -1.5470    -0.5320 c          1 HVG       0.739600
     22 O14         -4.1690     0.8750     1.0320 o          1 HVG      -0.751000
     23 O17         -3.8100    -1.2370     1.2220 o          1 HVG      -0.751000
@<TRIPOS>BOND
     1     1     5 1   
     2     1    11 1   
     3     1    13 1   
     4     2     6 ar  
     5     2     7 ar  
     6     2     9 1   
     7     3     5 ar  
     8     3     7 ar  
     9     3    15 1   
    10     4     5 ar  
    11     4     6 ar  
    12     4    21 1   
    13     6    16 1   
    14     7    17 1   
    15     8     9 1   
    16     8    22 1   
    17     8    23 1   
    18     9    10 1   
    19     9    18 1   
    20    10    19 1   
    21    10    20 1   
    22    12    21 1   
    23    14    21 1   
@<TRIPOS>SUBSTRUCTURE
     1 HVG         1 TEMP              0 ****  ****    0 ROOT
