@<TRIPOS>MOLECULE
HVG
   23    23     1     0     0
SMALL
abcg2


@<TRIPOS>ATOM
      1 C7           2.8440     1.1190     0.5020 c          1 HVG       0.737600
      2 C6          -1.2720     0.2560    -0.5470 ca         1 HVG      -0.118300
      3 C1           0.4990     1.8130    -0.0440 ca         1 HVG      -0.135000
      4 C5           0.9980    -0.5310    -0.1330 ca         1 HVG      -0.101600
      5 C4           1.4280     0.7850     0.0740 ca         1 HVG      -0.111600
      6 C3          -0.3400    -0.7730    -0.4230 ca         1 HVG      -0.098000
      7 C2          -0.8330     1.5600    -0.3460 ca         1 HVG      -0.172000
      8 C9          -3.3940    -0.4650     0.4830 c          1 HVG       0.735000
      9 C10         -2.7240    -0.0590    -0.8580 c3         1 HVG       0.062800
     10 N11         -3.4750     1.0080    -1.4910 n8         1 HVG      -1.015200
     11 O12          3.3180     0.4320     1.4270 o          1 HVG      -0.760500
     12 O13          1.6580    -2.7030     0.5160 o          1 HVG      -0.756000
     13 O15          3.3900     2.0850    -0.0690 o          1 HVG      -0.760500
     14 O16          2.9660    -1.5660    -0.8890 o          1 HVG      -0.756000
     15 H1           0.8200     2.8370     0.1110 ha         1 HVG       0.072000
     16 H2          -0.6690    -1.7950    -0.5830 ha         1 HVG       0.106000
     17 H3          -1.5250     2.3890    -0.4300 ha         1 HVG       0.051000
     18 H4          -2.7380    -0.9330    -1.5170 h1         1 HVG       0.036700
     19 H5          -3.6920     1.7070    -0.7920 hn         1 HVG       0.373000
     20 H6          -2.9140     1.4610    -2.2020 hn         1 HVG       0.373000
     21 C8           1.9690    -1.6980    -0.1540 c          1 HVG       0.739600
     22 O14         -3.9720     0.4440     1.1100 o          1 HVG      -0.751000
     23 O17         -3.2570    -1.6510     0.8340 o          1 HVG      -0.751000
@<TRIPOS>BOND
     1     1     5 1   
     2     1    11 1   
     3     1    13 1   
     4     2     6 ar  
     5     2     7 ar  
     6     2     9 1   
     7     3     5 ar  
     8     3     7 ar  
     9     3    15 1   
    10     4     5 ar  
    11     4     6 ar  
    12     4    21 1   
    13     6    16 1   
    14     7    17 1   
    15     8     9 1   
    16     8    22 1   
    17     8    23 1   
    18     9    10 1   
    19     9    18 1   
    20    10    19 1   
    21    10    20 1   
    22    12    21 1   
    23    14    21 1   
@<TRIPOS>SUBSTRUCTURE
     1 HVG         1 TEMP              0 ****  ****    0 ROOT
