@<TRIPOS>MOLECULE
HVH
   66    70     1     0     0
SMALL
No Charge or Current Charge


@<TRIPOS>ATOM
      1 N1           1.8830     1.4370     0.2530 nu         1 HVH      -0.926100
      2 C2           9.9040    -1.5130    -0.8520 cy         1 HVH      -0.068900
      3 N3          -2.2070    -0.6970     0.2870 nu         1 HVH      -0.929900
      4 C4           9.1490    -0.4330     0.9200 cy         1 HVH      -0.068900
      5 N4          -8.7040    -1.3270    -0.0230 n3         1 HVH      -0.708600
      6 C6           4.1730     0.5910    -0.1010 c3         1 HVH      -0.115400
      7 O            7.2250    -2.3530    -0.7760 o          1 HVH      -0.604100
      8 C            7.5070    -1.1690    -0.6270 c          1 HVH       0.606100
      9 C1           8.8730    -0.3400    -0.6300 cy         1 HVH      -0.174700
     10 C3           9.8550    -1.8210     0.6910 cy         1 HVH      -0.087400
     11 N            6.4730    -0.2740    -0.4570 ns         1 HVH      -0.510900
     12 C7           2.6770     0.2350    -0.0400 c3         1 HVH       0.229800
     13 C8           0.5040     1.5330     0.3730 ca         1 HVH       0.427900
     14 C21         -0.1120     2.7780     0.5970 ca         1 HVH      -0.275300
     15 C22          0.6650     4.0610     0.7270 cx         1 HVH      -0.064400
     16 C24          1.4280     4.6430    -0.4410 cx         1 HVH      -0.130400
     17 C23          0.1950     5.3430     0.0770 cx         1 HVH      -0.130400
     18 C20         -1.5130     2.7680     0.7200 ca         1 HVH       0.174900
     19 N5          -2.2250     1.6310     0.6170 nb         1 HVH      -0.265000
     20 C9          -1.5270     0.5050     0.3900 ca         1 HVH       0.423900
     21 N2          -0.1990     0.3950     0.2690 nb         1 HVH      -0.333000
     22 C10         -3.5550    -1.0690     0.2370 ca         1 HVH       0.323000
     23 C19         -3.9010    -2.3660     0.6470 ca         1 HVH      -0.173000
     24 C18         -5.2390    -2.7960     0.6090 ca         1 HVH      -0.077000
     25 C13         -6.2480    -1.9310     0.1490 ca         1 HVH      -0.107300
     26 C14         -7.7010    -2.4190     0.0930 c6         1 HVH       0.216100
     27 C16         -8.3300    -0.3810    -1.1030 c6         1 HVH       0.164800
     28 C17         -6.9890     0.3240    -0.7890 c6         1 HVH      -0.030100
     29 C12         -5.9050    -0.6340    -0.2880 ca         1 HVH      -0.035300
     30 C11         -4.5630    -0.2100    -0.2410 ca         1 HVH      -0.139000
     31 H1           2.3740     2.3280     0.3020 hn         1 HVH       0.497000
     32 H2           9.6200    -2.3290    -1.5270 hc         1 HVH       0.053950
     33 H3          10.8860    -1.1560    -1.1820 hc         1 HVH       0.053950
     34 H4          -1.5710    -1.4910     0.3340 hn         1 HVH       0.507000
     35 H5           9.8360     0.3420     1.2790 hc         1 HVH       0.053950
     36 H6           8.2870    -0.4420     1.5990 hc         1 HVH       0.053950
     37 H8           4.9090    -1.3940     0.3750 h1         1 HVH       0.054700
     38 H9           4.7640    -1.0690    -1.3710 h1         1 HVH       0.054700
     39 H10          4.4820     1.0270     0.8570 hc         1 HVH       0.048200
     40 H11          4.3340     1.3500    -0.8770 hc         1 HVH       0.048200
     41 H12          8.9110     0.6000    -1.1890 hc         1 HVH       0.057700
     42 H13          9.2450    -2.6900     0.9630 hc         1 HVH       0.058200
     43 H14         10.8310    -1.9330     1.1750 hc         1 HVH       0.058200
     44 H15          6.7310     0.6990    -0.3500 hn         1 HVH       0.311500
     45 H16          2.5150    -0.5230     0.7390 h1         1 HVH       0.057700
     46 H17          2.3660    -0.1970    -1.0020 h1         1 HVH       0.057700
     47 H18          1.1280     4.1620     1.7070 hc         1 HVH       0.079700
     48 H19          2.3930     5.1020    -0.2400 hc         1 HVH       0.072450
     49 H20          1.3540     4.1380    -1.4010 hc         1 HVH       0.072450
     50 H21         -0.6980     5.3090    -0.5410 hc         1 HVH       0.072450
     51 H22          0.3320     6.2690     0.6300 hc         1 HVH       0.072450
     52 H23         -2.0760     3.6810     0.9070 h4         1 HVH       0.019100
     53 H24         -3.1340    -3.0460     1.0070 ha         1 HVH       0.110000
     54 H25         -5.4900    -3.8030     0.9350 ha         1 HVH       0.109000
     55 H26         -7.9050    -3.0150     0.9950 h1         1 HVH       0.037200
     56 H27         -7.7910    -3.1030    -0.7640 h1         1 HVH       0.037200
     57 H28        -10.1880    -2.4210    -1.0980 h1         1 HVH       0.030033
     58 H29        -10.3390    -2.5020     0.6740 h1         1 HVH       0.030033
     59 H30        -10.8060    -1.0210    -0.1880 h1         1 HVH       0.030033
     60 H31         -8.2380    -0.9190    -2.0590 h1         1 HVH       0.032200
     61 H32         -9.1080     0.3850    -1.2360 h1         1 HVH       0.032200
     62 H33         -6.6420     0.8570    -1.6840 hc         1 HVH       0.057200
     63 H34         -7.1630     1.0900    -0.0220 hc         1 HVH       0.057200
     64 H35         -4.3120     0.7830    -0.5960 ha         1 HVH       0.149000
     65 C15        -10.0810    -1.8460    -0.1680 c3         1 HVH       0.152100
     66 C5           5.0550    -0.6330    -0.4050 c3         1 HVH       0.108000
@<TRIPOS>BOND
     1     1    12 1   
     2     1    13 1   
     3     1    31 1   
     4     2     9 1   
     5     2    10 1   
     6     2    32 1   
     7     2    33 1   
     8     3    20 1   
     9     3    22 1   
    10     3    34 1   
    11     4     9 1   
    12     4    10 1   
    13     4    35 1   
    14     4    36 1   
    15     5    26 1   
    16     5    27 1   
    17     5    65 1   
    18     6    12 1   
    19     6    39 1   
    20     6    40 1   
    21     6    66 1   
    22     7     8 2   
    23     8     9 1   
    24     8    11 1   
    25     9    41 1   
    26    10    42 1   
    27    10    43 1   
    28    11    44 1   
    29    11    66 1   
    30    12    45 1   
    31    12    46 1   
    32    13    14 ar  
    33    13    21 ar  
    34    14    15 1   
    35    14    18 ar  
    36    15    16 1   
    37    15    17 1   
    38    15    47 1   
    39    16    17 1   
    40    16    48 1   
    41    16    49 1   
    42    17    50 1   
    43    17    51 1   
    44    18    19 ar  
    45    18    52 1   
    46    19    20 ar  
    47    20    21 ar  
    48    22    23 ar  
    49    22    30 ar  
    50    23    24 ar  
    51    23    53 1   
    52    24    25 ar  
    53    24    54 1   
    54    25    26 1   
    55    25    29 ar  
    56    26    55 1   
    57    26    56 1   
    58    27    28 1   
    59    27    60 1   
    60    27    61 1   
    61    28    29 1   
    62    28    62 1   
    63    28    63 1   
    64    29    30 ar  
    65    30    64 1   
    66    37    66 1   
    67    38    66 1   
    68    57    65 1   
    69    58    65 1   
    70    59    65 1   
@<TRIPOS>SUBSTRUCTURE
     1 HVH         1 TEMP              0 ****  ****    0 ROOT
