@<TRIPOS>MOLECULE
HVH
   66    70     1     0     0
SMALL
abcg2


@<TRIPOS>ATOM
      1 N1           1.8260     1.7580    -0.0790 nu         1 HVH      -0.926100
      2 C2           9.6740    -1.2250    -0.5390 cy         1 HVH      -0.068900
      3 N3          -2.0830    -0.5680    -0.0800 nu         1 HVH      -0.929900
      4 C4           9.2700    -1.6440     1.5370 cy         1 HVH      -0.068900
      5 N4          -8.4270    -1.5710     0.3970 n3         1 HVH      -0.708600
      6 C6           4.0620     0.8080     0.0490 c3         1 HVH      -0.115400
      7 O            6.9380    -2.3260    -0.1670 o          1 HVH      -0.604100
      8 C            7.2120    -1.1640     0.1130 c          1 HVH       0.606100
      9 C1           8.6100    -0.7300     0.4730 cy         1 HVH      -0.174700
     10 C3          10.0490    -2.3670     0.4230 cy         1 HVH      -0.087400
     11 N            6.2840    -0.1950     0.1230 ns         1 HVH      -0.510900
     12 C7           2.6000     0.5540    -0.2780 c3         1 HVH       0.229800
     13 C8           0.4830     1.7810    -0.0590 ca         1 HVH       0.427900
     14 C21         -0.2110     3.0220     0.0140 ca         1 HVH      -0.275300
     15 C22          0.5210     4.3080     0.0730 cx         1 HVH      -0.064400
     16 C24          1.1650     4.8700    -1.1700 cx         1 HVH      -0.130400
     17 C23         -0.0330     5.5380    -0.5750 cx         1 HVH      -0.130400
     18 C20         -1.5750     2.9130     0.0480 ca         1 HVH       0.174900
     19 N5          -2.2500     1.7560     0.0150 nb         1 HVH      -0.265000
     20 C9          -1.5020     0.6670    -0.0500 ca         1 HVH       0.423900
     21 N2          -0.1680     0.6270    -0.0970 nb         1 HVH      -0.333000
     22 C10         -3.4130    -0.9690    -0.0500 ca         1 HVH       0.323000
     23 C19         -3.6490    -2.3510    -0.0210 ca         1 HVH      -0.173000
     24 C18         -4.9380    -2.8420     0.0070 ca         1 HVH      -0.077000
     25 C13         -6.0400    -1.9900     0.0060 ca         1 HVH      -0.107300
     26 C14         -7.4360    -2.5540     0.0130 c6         1 HVH       0.216100
     27 C16         -8.2760    -0.3650    -0.3930 c6         1 HVH       0.164800
     28 C17         -6.9780     0.3340    -0.0300 c6         1 HVH      -0.030100
     29 C12         -5.8130    -0.6190    -0.0310 ca         1 HVH      -0.035300
     30 C11         -4.5130    -0.1140    -0.0560 ca         1 HVH      -0.139000
     31 H1           2.2960     2.6380    -0.2220 hn         1 HVH       0.497000
     32 H2           9.3210    -1.5020    -1.5320 hc         1 HVH       0.053950
     33 H3          10.4760    -0.4950    -0.6510 hc         1 HVH       0.053950
     34 H4          -1.4090    -1.3170    -0.1130 hn         1 HVH       0.507000
     35 H5           9.9210    -1.0670     2.1940 hc         1 HVH       0.053950
     36 H6           8.6040    -2.2450     2.1560 hc         1 HVH       0.053950
     37 H8           4.5170    -1.2670     0.3940 h1         1 HVH       0.054700
     38 H9           4.8010    -0.7360    -1.2550 h1         1 HVH       0.054700
     39 H10          4.1570     1.1120     1.0950 hc         1 HVH       0.048200
     40 H11          4.4410     1.6330    -0.5640 hc         1 HVH       0.048200
     41 H12          8.6420     0.3380     0.6960 hc         1 HVH       0.057700
     42 H13          9.5870    -3.3130     0.1420 hc         1 HVH       0.058200
     43 H14         11.1110    -2.5390     0.5960 hc         1 HVH       0.058200
     44 H15          6.5700     0.7480     0.3290 hn         1 HVH       0.311500
     45 H16          2.2070    -0.2340     0.3660 h1         1 HVH       0.057700
     46 H17          2.5040     0.1940    -1.3090 h1         1 HVH       0.057700
     47 H18          1.0790     4.4770     0.9920 hc         1 HVH       0.079700
     48 H19          2.1290     5.3520    -1.0690 hc         1 HVH       0.072450
     49 H20          1.0280     4.3250    -2.0960 hc         1 HVH       0.072450
     50 H21         -0.9720     5.4570    -1.1080 hc         1 HVH       0.072450
     51 H22          0.1070     6.4810    -0.0640 hc         1 HVH       0.072450
     52 H23         -2.1830     3.8100     0.1050 h4         1 HVH       0.019100
     53 H24         -2.8130    -3.0420    -0.0150 ha         1 HVH       0.110000
     54 H25         -5.0880    -3.9150     0.0340 ha         1 HVH       0.109000
     55 H26         -7.4840    -3.3970     0.7100 h1         1 HVH       0.037200
     56 H27         -7.6590    -2.9710    -0.9870 h1         1 HVH       0.037200
     57 H28        -10.0230    -2.4340    -0.7260 h1         1 HVH       0.030033
     58 H29         -9.8520    -2.9980     0.9430 h1         1 HVH       0.030033
     59 H30        -10.4940    -1.3870     0.6240 h1         1 HVH       0.030033
     60 H31         -8.2990    -0.5830    -1.4760 h1         1 HVH       0.032200
     61 H32         -9.1180     0.3000    -0.1910 h1         1 HVH       0.032200
     62 H33         -6.7920     1.1550    -0.7260 hc         1 HVH       0.057200
     63 H34         -7.0760     0.7850     0.9620 hc         1 HVH       0.057200
     64 H35         -4.3650     0.9550    -0.0810 ha         1 HVH       0.149000
     65 C15         -9.7580    -2.1230     0.2970 c3         1 HVH       0.152100
     66 C5           4.8960    -0.4360    -0.2060 c3         1 HVH       0.108000
@<TRIPOS>BOND
     1     1    12 1   
     2     1    13 1   
     3     1    31 1   
     4     2     9 1   
     5     2    10 1   
     6     2    32 1   
     7     2    33 1   
     8     3    20 1   
     9     3    22 1   
    10     3    34 1   
    11     4     9 1   
    12     4    10 1   
    13     4    35 1   
    14     4    36 1   
    15     5    26 1   
    16     5    27 1   
    17     5    65 1   
    18     6    12 1   
    19     6    39 1   
    20     6    40 1   
    21     6    66 1   
    22     7     8 2   
    23     8     9 1   
    24     8    11 1   
    25     9    41 1   
    26    10    42 1   
    27    10    43 1   
    28    11    44 1   
    29    11    66 1   
    30    12    45 1   
    31    12    46 1   
    32    13    14 ar  
    33    13    21 ar  
    34    14    15 1   
    35    14    18 ar  
    36    15    16 1   
    37    15    17 1   
    38    15    47 1   
    39    16    17 1   
    40    16    48 1   
    41    16    49 1   
    42    17    50 1   
    43    17    51 1   
    44    18    19 ar  
    45    18    52 1   
    46    19    20 ar  
    47    20    21 ar  
    48    22    23 ar  
    49    22    30 ar  
    50    23    24 ar  
    51    23    53 1   
    52    24    25 ar  
    53    24    54 1   
    54    25    26 1   
    55    25    29 ar  
    56    26    55 1   
    57    26    56 1   
    58    27    28 1   
    59    27    60 1   
    60    27    61 1   
    61    28    29 1   
    62    28    62 1   
    63    28    63 1   
    64    29    30 ar  
    65    30    64 1   
    66    37    66 1   
    67    38    66 1   
    68    57    65 1   
    69    58    65 1   
    70    59    65 1   
@<TRIPOS>SUBSTRUCTURE
     1 HVH         1 TEMP              0 ****  ****    0 ROOT
