@<TRIPOS>MOLECULE
HVI
   44    48     1     0     0
SMALL
No Charge or Current Charge


@<TRIPOS>ATOM
      1 C14        -14.0680   -11.5570  -101.7250 c3         1 HVI       0.061900
      2 C12        -18.7770   -13.0300  -101.0740 cc         1 HVI       0.409800
      3 C01        -15.3220   -12.8810   -97.6210 cc         1 HVI       0.476700
      4 C03        -15.4370   -12.4100   -99.7410 cd         1 HVI       0.335500
      5 C04        -16.7020   -12.8070   -99.5560 cc         1 HVI      -0.226000
      6 C07        -16.5500   -12.2570  -101.7160 cd         1 HVI      -0.188600
      7 C08        -17.4110   -12.7220  -100.7610 cc         1 HVI      -0.144900
      8 C09        -17.0140   -12.0600  -103.1050 c          1 HVI       0.568600
      9 C15        -14.7540   -13.0240   -96.2420 c3         1 HVI      -0.138000
     10 C16        -14.9990   -14.3760   -95.6450 cc         1 HVI       0.243300
     11 C17        -16.0190   -14.6280   -94.7170 cc         1 HVI      -0.221000
     12 C18        -15.9540   -15.9490   -94.3980 cd         1 HVI      -0.170000
     13 C22        -19.1940   -10.7930  -105.0630 ca         1 HVI       0.386300
     14 C23        -19.6110    -9.7950  -104.1560 ca         1 HVI      -0.204000
     15 C24        -19.7860    -8.4780  -104.6090 ca         1 HVI      -0.034000
     16 C25        -19.5370    -8.2180  -105.9640 ca         1 HVI      -0.231000
     17 C26        -19.1330    -9.2790  -106.7770 ca         1 HVI       0.604900
     18 N02        -14.5950   -12.4270   -98.6520 nd         1 HVI      -0.622000
     19 N06        -15.2950   -12.0530  -101.0870 na         1 HVI      -0.076500
     20 N10        -18.3970   -12.4050  -103.2690 n          1 HVI      -0.140800
     21 N11        -19.3080   -12.8890  -102.2950 nd         1 HVI      -0.443300
     22 N19        -14.8820   -16.4370   -95.1580 na         1 HVI      -0.000200
     23 N20        -14.2870   -15.4430   -95.9390 nd         1 HVI      -0.507800
     24 N27        -18.9660   -10.5290  -106.3740 nb         1 HVI      -0.750000
     25 N28        -18.8830    -9.1550  -108.0810 nv         1 HVI      -1.057900
     26 S05        -17.0270   -13.2770   -97.9300 ss         1 HVI      -0.018400
     27 H1         -13.2580   -11.5010  -100.9880 h1         1 HVI       0.068700
     28 H2         -13.7740   -12.2380  -102.5330 h1         1 HVI       0.068700
     29 H3         -14.2490   -10.5590  -102.1400 h1         1 HVI       0.068700
     30 H4         -19.4660   -13.3990  -100.3270 h4         1 HVI       0.047800
     31 H5         -13.6760   -12.8290   -96.2650 hc         1 HVI       0.079200
     32 H6         -15.1880   -12.2510   -95.5990 hc         1 HVI       0.079200
     33 H7         -16.7220   -13.8930   -94.3370 ha         1 HVI       0.148000
     34 H8         -16.5470   -16.5620   -93.7270 h4         1 HVI       0.155000
     35 H9         -19.9800   -12.7350  -104.6370 h1         1 HVI       0.088200
     36 H10        -18.3660   -12.7590  -105.3420 h1         1 HVI       0.088200
     37 H11        -19.7990   -10.0430  -103.1150 ha         1 HVI       0.127000
     38 H12        -20.1060    -7.6870  -103.9320 ha         1 HVI       0.114000
     39 H13        -19.6560    -7.2190  -106.3710 ha         1 HVI       0.120000
     40 H14        -14.5410   -17.3990   -95.1710 hn         1 HVI       0.373000
     41 H15        -18.8370   -10.0310  -108.5860 hn         1 HVI       0.470500
     42 H16        -19.3020    -8.3710  -108.5680 hn         1 HVI       0.470500
     43 O13        -16.2990   -11.6500  -104.0110 o          1 HVI      -0.538000
     44 C21        -19.0020   -12.2400  -104.6140 c3         1 HVI       0.057700
@<TRIPOS>BOND
     1     1    19 1   
     2     1    27 1   
     3     1    28 1   
     4     1    29 1   
     5     2     7 1   
     6     2    21 2   
     7     2    30 1   
     8     3     9 1   
     9     3    18 2   
    10     3    26 1   
    11     4     5 2   
    12     4    18 1   
    13     4    19 1   
    14     5     7 1   
    15     5    26 1   
    16     6     7 2   
    17     6     8 1   
    18     6    19 1   
    19     8    20 1   
    20     8    43 2   
    21     9    10 1   
    22     9    31 1   
    23     9    32 1   
    24    10    11 1   
    25    10    23 2   
    26    11    12 2   
    27    11    33 1   
    28    12    22 1   
    29    12    34 1   
    30    13    14 ar  
    31    13    24 ar  
    32    13    44 1   
    33    14    15 ar  
    34    14    37 1   
    35    15    16 ar  
    36    15    38 1   
    37    16    17 ar  
    38    16    39 1   
    39    17    24 ar  
    40    17    25 1   
    41    20    21 1   
    42    20    44 1   
    43    22    23 1   
    44    22    40 1   
    45    25    41 1   
    46    25    42 1   
    47    35    44 1   
    48    36    44 1   
@<TRIPOS>SUBSTRUCTURE
     1 HVI         1 TEMP              0 ****  ****    0 ROOT
