@<TRIPOS>MOLECULE
HVI
   44    48     1     0     0
SMALL
abcg2


@<TRIPOS>ATOM
      1 C14        -14.5120   -12.2560  -101.4820 c3         1 HVI       0.061900
      2 C12        -19.3960   -12.5240  -100.9780 cc         1 HVI       0.409800
      3 C01        -15.8860   -12.6120   -97.3830 cc         1 HVI       0.476700
      4 C03        -16.0480   -12.4840   -99.5270 cd         1 HVI       0.335500
      5 C04        -17.4050   -12.5720   -99.2740 cc         1 HVI      -0.226000
      6 C07        -17.0410   -12.3820  -101.4690 cd         1 HVI      -0.188600
      7 C08        -18.0560   -12.5050  -100.5200 cc         1 HVI      -0.144900
      8 C09        -17.3330   -12.2650  -102.8680 c          1 HVI       0.568600
      9 C15        -15.2810   -12.7210   -96.0210 c3         1 HVI      -0.138000
     10 C16        -14.8970   -14.1340   -95.7050 cc         1 HVI       0.243300
     11 C17        -15.7430   -15.2460   -95.5330 cc         1 HVI      -0.221000
     12 C18        -14.8870   -16.2890   -95.2690 cd         1 HVI      -0.170000
     13 C22        -19.0210   -10.7320  -105.0020 ca         1 HVI       0.386300
     14 C23        -19.0600    -9.6430  -104.1490 ca         1 HVI      -0.204000
     15 C24        -19.0100    -8.3740  -104.7240 ca         1 HVI      -0.034000
     16 C25        -18.9300    -8.2380  -106.0910 ca         1 HVI      -0.231000
     17 C26        -18.9030    -9.4070  -106.8720 ca         1 HVI       0.604900
     18 N02        -15.1990   -12.5070   -98.4770 nd         1 HVI      -0.622000
     19 N06        -15.8180   -12.3690  -100.8620 na         1 HVI      -0.076500
     20 N10        -18.6930   -12.3110  -103.1250 n          1 HVI      -0.140800
     21 N11        -19.6850   -12.4260  -102.2310 nd         1 HVI      -0.443300
     22 N19        -13.6480   -15.7740   -95.2950 na         1 HVI      -0.000200
     23 N20        -13.6280   -14.4740   -95.5580 nd         1 HVI      -0.507800
     24 N27        -18.9480   -10.6190  -106.3250 nb         1 HVI      -0.750000
     25 N28        -18.7800    -9.3410  -108.2280 nv         1 HVI      -1.057900
     26 S05        -17.6240   -12.6870   -97.5770 ss         1 HVI      -0.018400
     27 H1         -13.7610   -12.2910  -100.6980 h1         1 HVI       0.068700
     28 H2         -14.3410   -13.0790  -102.1710 h1         1 HVI       0.068700
     29 H3         -14.4210   -11.3150  -102.0170 h1         1 HVI       0.068700
     30 H4         -20.2330   -12.6190  -100.2980 h4         1 HVI       0.047800
     31 H5         -14.3930   -12.0890   -95.9890 hc         1 HVI       0.079200
     32 H6         -15.9790   -12.3410   -95.2720 hc         1 HVI       0.079200
     33 H7         -16.8190   -15.2790   -95.5920 ha         1 HVI       0.148000
     34 H8         -15.0690   -17.3320   -95.0680 h4         1 HVI       0.155000
     35 H9         -20.1560   -12.4880  -104.5500 h1         1 HVI       0.088200
     36 H10        -18.5360   -12.8050  -105.1500 h1         1 HVI       0.088200
     37 H11        -19.1310    -9.7580  -103.0770 ha         1 HVI       0.127000
     38 H12        -19.0380    -7.4930  -104.0970 ha         1 HVI       0.114000
     39 H13        -18.8900    -7.2630  -106.5580 ha         1 HVI       0.120000
     40 H14        -12.7830   -16.2660   -95.1370 hn         1 HVI       0.373000
     41 H15        -19.0260   -10.1710  -108.7420 hn         1 HVI       0.470500
     42 H16        -19.0320    -8.4800  -108.6820 hn         1 HVI       0.470500
     43 O13        -16.5180   -12.1340  -103.7730 o          1 HVI      -0.538000
     44 C21        -19.1200   -12.1530  -104.5020 c3         1 HVI       0.057700
@<TRIPOS>BOND
     1     1    19 1   
     2     1    27 1   
     3     1    28 1   
     4     1    29 1   
     5     2     7 1   
     6     2    21 2   
     7     2    30 1   
     8     3     9 1   
     9     3    18 2   
    10     3    26 1   
    11     4     5 2   
    12     4    18 1   
    13     4    19 1   
    14     5     7 1   
    15     5    26 1   
    16     6     7 2   
    17     6     8 1   
    18     6    19 1   
    19     8    20 1   
    20     8    43 2   
    21     9    10 1   
    22     9    31 1   
    23     9    32 1   
    24    10    11 1   
    25    10    23 2   
    26    11    12 2   
    27    11    33 1   
    28    12    22 1   
    29    12    34 1   
    30    13    14 ar  
    31    13    24 ar  
    32    13    44 1   
    33    14    15 ar  
    34    14    37 1   
    35    15    16 ar  
    36    15    38 1   
    37    16    17 ar  
    38    16    39 1   
    39    17    24 ar  
    40    17    25 1   
    41    20    21 1   
    42    20    44 1   
    43    22    23 1   
    44    22    40 1   
    45    25    41 1   
    46    25    42 1   
    47    35    44 1   
    48    36    44 1   
@<TRIPOS>SUBSTRUCTURE
     1 HVI         1 TEMP              0 ****  ****    0 ROOT
