@<TRIPOS>MOLECULE
HVJ
   41    42     1     0     0
SMALL
No Charge or Current Charge


@<TRIPOS>ATOM
      1 C11         -1.7480    -0.4100     1.0350 ca         1 HVJ       0.012700
      2 C12          3.4790     2.8730     0.6310 c3         1 HVJ      -0.056900
      3 C13         -1.0630     1.1990    -0.6680 ca         1 HVJ       0.185100
      4 C14          1.4680    -3.3300     0.4080 c3         1 HVJ      -0.055900
      5 C15         -0.1140    -2.6390    -1.4110 c2         1 HVJ      -0.309000
      6 C16         -3.0930    -0.1340     0.7140 ca         1 HVJ      -0.246000
      7 C17         -2.4030     1.4550    -0.9730 ca         1 HVJ      -0.192000
      8 C18         -1.4730    -1.4300     2.1380 c3         1 HVJ      -0.055800
      9 C19         -3.4160     0.7880    -0.2850 ca         1 HVJ       0.173100
     10 C10          0.8740    -2.3170    -0.5600 c2         1 HVJ      -0.117400
     11 O01         -0.1050     1.8890    -1.3450 oh         1 HVJ      -0.549100
     12 O02         -4.7190     1.0430    -0.5840 oh         1 HVJ      -0.532100
     13 C03          1.4420    -0.8890    -0.5190 c6         1 HVJ      -0.022500
     14 C04          0.7920    -0.0320     0.6200 c6         1 HVJ       0.030800
     15 C05          2.9890    -0.8520    -0.4160 c6         1 HVJ      -0.068400
     16 C06          3.5150     0.5960    -0.5430 c6         1 HVJ      -0.046200
     17 C07          1.5610     1.2630     0.8880 c2         1 HVJ      -0.247200
     18 C08          2.7660     1.5610     0.3690 c2         1 HVJ      -0.113400
     19 C09         -0.7060     0.2590     0.3320 ca         1 HVJ      -0.194300
     20 H121         2.8880     3.5350     1.2760 hc         1 HVJ       0.043367
     21 H123         4.4430     2.7060     1.1260 hc         1 HVJ       0.043367
     22 H122         3.6710     3.4100    -0.3060 hc         1 HVJ       0.043367
     23 H141         1.4500    -2.9600     1.4400 hc         1 HVJ       0.037700
     24 H142         0.9120    -4.2750     0.3920 hc         1 HVJ       0.037700
     25 H143         2.5080    -3.5650     0.1540 hc         1 HVJ       0.037700
     26 H152        -0.5460    -1.9070    -2.0940 ha         1 HVJ       0.166000
     27 H151        -0.5330    -3.6450    -1.4500 ha         1 HVJ       0.166000
     28 H161        -3.8890    -0.6460     1.2490 ha         1 HVJ       0.112000
     29 H171        -2.6560     2.1780    -1.7430 ha         1 HVJ       0.143000
     30 H183        -0.9010    -0.9830     2.9590 hc         1 HVJ       0.044700
     31 H181        -2.4000    -1.8230     2.5710 hc         1 HVJ       0.044700
     32 H182        -0.9120    -2.2880     1.7530 hc         1 HVJ       0.044700
     33 H011         0.7420     1.6990    -0.8840 ho         1 HVJ       0.479000
     34 H021        -5.2790     0.4880    -0.0020 ho         1 HVJ       0.464000
     35 H031         1.1900    -0.4170    -1.4780 hc         1 HVJ       0.058700
     36 H041         0.8910    -0.6080     1.5470 hc         1 HVJ       0.067700
     37 H051         3.3140    -1.2640     0.5490 hc         1 HVJ       0.046200
     38 H052         3.4390    -1.4780    -1.1980 hc         1 HVJ       0.046200
     39 H061         4.5860     0.6020    -0.2980 hc         1 HVJ       0.050200
     40 H062         3.4340     0.9390    -1.5840 hc         1 HVJ       0.050200
     41 H071         1.0590     1.9720     1.5500 ha         1 HVJ       0.180000
@<TRIPOS>BOND
     1     1     6 ar  
     2     1     8 1   
     3     1    19 ar  
     4     2    18 1   
     5     2    20 1   
     6     2    21 1   
     7     2    22 1   
     8     3     7 ar  
     9     3    11 1   
    10     3    19 ar  
    11     4    10 1   
    12     4    23 1   
    13     4    24 1   
    14     4    25 1   
    15     5    10 2   
    16     5    26 1   
    17     5    27 1   
    18     6     9 ar  
    19     6    28 1   
    20     7     9 ar  
    21     7    29 1   
    22     8    30 1   
    23     8    31 1   
    24     8    32 1   
    25     9    12 1   
    26    10    13 1   
    27    11    33 1   
    28    12    34 1   
    29    13    14 1   
    30    13    15 1   
    31    13    35 1   
    32    14    17 1   
    33    14    19 1   
    34    14    36 1   
    35    15    16 1   
    36    15    37 1   
    37    15    38 1   
    38    16    18 1   
    39    16    39 1   
    40    16    40 1   
    41    17    18 2   
    42    17    41 1   
@<TRIPOS>SUBSTRUCTURE
     1 HVJ         1 TEMP              0 ****  ****    0 ROOT
