@<TRIPOS>MOLECULE
HVJ
   41    42     1     0     0
SMALL
bcc


@<TRIPOS>ATOM
      1 C11         -1.6980    -0.4220     1.0240 ca         1 HVJ       0.012700
      2 C12          3.4610     2.8300     0.6300 c3         1 HVJ      -0.056900
      3 C13         -1.0600     1.1900    -0.6320 ca         1 HVJ       0.185100
      4 C14          1.3950    -3.2520     0.4420 c3         1 HVJ      -0.055900
      5 C15         -0.0930    -2.6020    -1.4240 c2         1 HVJ      -0.209000
      6 C16         -3.0350    -0.1810     0.7230 ca         1 HVJ      -0.264000
      7 C17         -2.3950     1.4300    -0.9370 ca         1 HVJ      -0.210000
      8 C18         -1.3960    -1.4400     2.0880 c3         1 HVJ      -0.055800
      9 C19         -3.3850     0.7370    -0.2610 ca         1 HVJ       0.173100
     10 C10          0.8560    -2.2650    -0.5530 c2         1 HVJ      -0.117400
     11 O01         -0.1640     1.9000    -1.3550 oh         1 HVJ      -0.510100
     12 O02         -4.6700     0.9960    -0.5850 oh         1 HVJ      -0.493100
     13 C03          1.4210    -0.8660    -0.5280 c6         1 HVJ      -0.022500
     14 C04          0.7880    -0.0250     0.6100 c6         1 HVJ       0.030800
     15 C05          2.9420    -0.8520    -0.3950 c6         1 HVJ      -0.068400
     16 C06          3.4910     0.5590    -0.5290 c6         1 HVJ      -0.046200
     17 C07          1.5650     1.2460     0.8640 c2         1 HVJ      -0.197200
     18 C08          2.7660     1.5340     0.3530 c2         1 HVJ      -0.113400
     19 C09         -0.6780     0.2600     0.3470 ca         1 HVJ      -0.194300
     20 H121         2.8500     3.5050     1.2280 hc         1 HVJ       0.043367
     21 H123         4.4010     2.6590     1.1590 hc         1 HVJ       0.043367
     22 H122         3.7190     3.3390    -0.3020 hc         1 HVJ       0.043367
     23 H141         1.4080    -2.8470     1.4560 hc         1 HVJ       0.037700
     24 H142         0.8020    -4.1660     0.4560 hc         1 HVJ       0.037700
     25 H143         2.4260    -3.5270     0.2070 hc         1 HVJ       0.037700
     26 H152        -0.4750    -1.8910    -2.1470 ha         1 HVJ       0.116000
     27 H151        -0.5250    -3.5950    -1.4400 ha         1 HVJ       0.116000
     28 H161        -3.8070    -0.7200     1.2600 ha         1 HVJ       0.130000
     29 H171        -2.6510     2.1590    -1.6970 ha         1 HVJ       0.161000
     30 H183        -0.7610    -1.0370     2.8790 hc         1 HVJ       0.044700
     31 H181        -2.3140    -1.7930     2.5550 hc         1 HVJ       0.044700
     32 H182        -0.8870    -2.3120     1.6760 hc         1 HVJ       0.044700
     33 H011         0.7080     1.8770    -0.9310 ho         1 HVJ       0.440000
     34 H021        -5.2610     0.4600    -0.0450 ho         1 HVJ       0.425000
     35 H031         1.1620    -0.3910    -1.4800 hc         1 HVJ       0.058700
     36 H041         0.8520    -0.6120     1.5320 hc         1 HVJ       0.067700
     37 H051         3.2300    -1.2560     0.5810 hc         1 HVJ       0.046200
     38 H052         3.3910    -1.5030    -1.1500 hc         1 HVJ       0.046200
     39 H061         4.5560     0.5740    -0.2790 hc         1 HVJ       0.050200
     40 H062         3.4310     0.8970    -1.5710 hc         1 HVJ       0.050200
     41 H071         1.0890     1.9640     1.5280 ha         1 HVJ       0.130000
@<TRIPOS>BOND
     1     1     6 ar  
     2     1     8 1   
     3     1    19 ar  
     4     2    18 1   
     5     2    20 1   
     6     2    21 1   
     7     2    22 1   
     8     3     7 ar  
     9     3    11 1   
    10     3    19 ar  
    11     4    10 1   
    12     4    23 1   
    13     4    24 1   
    14     4    25 1   
    15     5    10 2   
    16     5    26 1   
    17     5    27 1   
    18     6     9 ar  
    19     6    28 1   
    20     7     9 ar  
    21     7    29 1   
    22     8    30 1   
    23     8    31 1   
    24     8    32 1   
    25     9    12 1   
    26    10    13 1   
    27    11    33 1   
    28    12    34 1   
    29    13    14 1   
    30    13    15 1   
    31    13    35 1   
    32    14    17 1   
    33    14    19 1   
    34    14    36 1   
    35    15    16 1   
    36    15    37 1   
    37    15    38 1   
    38    16    18 1   
    39    16    39 1   
    40    16    40 1   
    41    17    18 2   
    42    17    41 1   
@<TRIPOS>SUBSTRUCTURE
     1 HVJ         1 TEMP              0 ****  ****    0 ROOT
