@<TRIPOS>MOLECULE
HVK
   13    13     1     0     0
SMALL
No Charge or Current Charge


@<TRIPOS>ATOM
      1 N1           0.3460    -1.1440     0.0360 nb         1 HVK      -0.744000
      2 C2           0.9020     0.0600     0.0560 ca         1 HVK       0.591900
      3 C3           0.2030     1.2700     0.0240 ca         1 HVK      -0.229000
      4 C4          -1.1980     1.2290    -0.0260 ca         1 HVK      -0.035000
      5 C5          -1.8100    -0.0350    -0.0450 ca         1 HVK      -0.220000
      6 C6          -1.0060    -1.1900    -0.0130 ca         1 HVK       0.381900
      7 N            2.2340    -0.0220     0.0970 nv         1 HVK      -1.053900
      8 H3           0.7320     2.2180     0.0410 ha         1 HVK       0.119000
      9 H4          -1.7900     2.1420    -0.0510 ha         1 HVK       0.114000
     10 H5          -2.8920    -0.1290    -0.0840 ha         1 HVK       0.124000
     11 H6          -1.4580    -2.1810    -0.0270 h4         1 HVK       0.014100
     12 HN2          2.6120    -0.9350    -0.1250 hn         1 HVK       0.468500
     13 HN1A         2.7660     0.7800    -0.2230 hn         1 HVK       0.468500
@<TRIPOS>BOND
     1     1     2 ar  
     2     1     6 ar  
     3     2     3 ar  
     4     2     7 1   
     5     3     4 ar  
     6     3     8 1   
     7     4     5 ar  
     8     4     9 1   
     9     5     6 ar  
    10     5    10 1   
    11     6    11 1   
    12     7    12 1   
    13     7    13 1   
@<TRIPOS>SUBSTRUCTURE
     1 HVK         1 TEMP              0 ****  ****    0 ROOT
