@<TRIPOS>MOLECULE
HVK
   13    13     1     0     0
SMALL
bcc


@<TRIPOS>ATOM
      1 N1           0.2820    -1.1610     0.0200 nb         1 HVK      -0.744000
      2 C2           0.9040     0.0160     0.0340 ca         1 HVK       0.657200
      3 C3           0.1980     1.2330     0.0090 ca         1 HVK      -0.312300
      4 C4          -1.1770     1.1940    -0.0280 ca         1 HVK      -0.053000
      5 C5          -1.8330    -0.0370    -0.0360 ca         1 HVK      -0.303300
      6 C6          -1.0480    -1.1730    -0.0120 ca         1 HVK       0.447200
      7 N            2.2670    -0.0000     0.1160 nv         1 HVK      -0.943500
      8 H3           0.7320     2.1750     0.0180 ha         1 HVK       0.137000
      9 H4          -1.7420     2.1170    -0.0510 ha         1 HVK       0.132000
     10 H5          -2.9110    -0.1080    -0.0650 ha         1 HVK       0.142000
     11 H6          -1.5100    -2.1550    -0.0200 h4         1 HVK       0.014100
     12 HN2          2.7170    -0.8620    -0.1460 hn         1 HVK       0.413300
     13 HN1A         2.7610     0.8250    -0.1800 hn         1 HVK       0.413300
@<TRIPOS>BOND
     1     1     2 ar  
     2     1     6 ar  
     3     2     3 ar  
     4     2     7 1   
     5     3     4 ar  
     6     3     8 1   
     7     4     5 ar  
     8     4     9 1   
     9     5     6 ar  
    10     5    10 1   
    11     6    11 1   
    12     7    12 1   
    13     7    13 1   
@<TRIPOS>SUBSTRUCTURE
     1 HVK         1 TEMP              0 ****  ****    0 ROOT
