@<TRIPOS>MOLECULE
HVL
   86    90     1     0     0
SMALL
bcc


@<TRIPOS>ATOM
      1 C3         -28.0940    -0.7210   -26.0800 c3         1 HVL      -0.084100
      2 C4         -27.0390    -1.2780   -25.1110 c6         1 HVL      -0.057000
      3 C5         -25.6280    -0.9440   -25.6840 c6         1 HVL       0.151100
      4 C6         -25.1970    -1.9970   -26.6780 c6         1 HVL      -0.072400
      5 C7         -24.9500    -3.3370   -25.9880 c6         1 HVL      -0.075400
      6 C8         -25.9050    -3.6460   -24.7980 c6         1 HVL      -0.025000
      7 C9         -27.2220    -2.8380   -25.0150 c6         1 HVL      -0.032700
      8 C10        -27.1890    -0.5700   -23.7590 c3         1 HVL      -0.084100
      9 O11        -25.5650     0.3150   -26.3260 oh         1 HVL      -0.600800
     10 C22        -28.2930    -3.3030   -24.0180 c6         1 HVL       0.153100
     11 C23        -28.5910    -4.7900   -24.2030 c6         1 HVL      -0.111400
     12 C24        -27.3850    -5.7100   -24.0060 c6         1 HVL      -0.008000
     13 C25        -26.2230    -5.1720   -24.8790 c6         1 HVL      -0.050700
     14 C27        -25.1760    -3.2800   -23.4940 c3         1 HVL      -0.085100
     15 C33        -27.6820    -7.1670   -24.5150 c5         1 HVL      -0.035000
     16 C34        -26.4310    -8.0570   -24.3200 c5         1 HVL      -0.090700
     17 C35        -26.9560    -9.4770   -24.6120 c5         1 HVL      -0.057700
     18 C36        -28.3910    -9.4470   -24.0220 c5         1 HVL      -0.075400
     19 C37        -28.7300    -7.9710   -23.7300 c5         1 HVL      -0.074400
     20 C38        -25.2210    -7.5220   -25.0810 c6         1 HVL       0.171100
     21 C39        -24.9820    -6.0550   -24.7270 c6         1 HVL      -0.077400
     22 C40        -26.1270   -10.6910   -24.1370 c6         1 HVL       0.188800
     23 O41        -24.9710   -10.6820   -24.9930 os         1 HVL      -0.458600
     24 C42        -24.1100   -11.8180   -25.1580 c6         1 HVL       0.179800
     25 C43        -24.9440   -13.0720   -25.4110 c6         1 HVL      -0.099400
     26 C44        -26.0600   -13.2230   -24.3900 c6         1 HVL      -0.073400
     27 C45        -26.9290   -11.9730   -24.3870 c6         1 HVL      -0.099400
     28 C46        -25.7370   -10.5610   -22.6640 c3         1 HVL      -0.115100
     29 C47        -28.1540    -7.1950   -25.9860 c3         1 HVL      -0.087100
     30 C48        -27.0560    -5.7220   -22.5030 c3         1 HVL      -0.087100
     31 C49        -23.1740   -12.0040   -23.9640 c3         1 HVL      -0.102100
     32 C50        -23.2760   -11.4880   -26.3910 c3         1 HVL      -0.102100
     33 O51        -24.0230    -8.2030   -24.7760 oh         1 HVL      -0.630800
     34 O2         -29.5000    -2.5830   -24.2130 oh         1 HVL      -0.601800
     35 H1         -29.0920    -1.0120   -25.7700 hc         1 HVL       0.036533
     36 H2         -28.0700     0.3680   -26.1210 hc         1 HVL       0.036533
     37 H3         -27.9430    -1.0910   -27.0970 hc         1 HVL       0.036533
     38 H4         -24.9100    -0.9380   -24.8530 h1         1 HVL       0.027700
     39 H5         -24.2850    -1.6790   -27.1910 hc         1 HVL       0.052200
     40 H6         -25.9620    -2.1040   -27.4530 hc         1 HVL       0.052200
     41 H7         -25.0370    -4.1220   -26.7440 hc         1 HVL       0.043700
     42 H8         -23.9170    -3.3760   -25.6340 hc         1 HVL       0.043700
     43 H9         -27.5840    -3.1510   -26.0060 hc         1 HVL       0.055700
     44 H10        -26.5180    -0.9770   -23.0020 hc         1 HVL       0.036533
     45 H11        -26.9580     0.4950   -23.8550 hc         1 HVL       0.036533
     46 H12        -28.2060    -0.6370   -23.3780 hc         1 HVL       0.036533
     47 H13        -25.7960     0.9990   -25.6900 ho         1 HVL       0.402000
     48 H14        -27.9300    -3.1150   -23.0000 h1         1 HVL       0.031700
     49 H15        -28.9940    -4.8960   -25.2120 hc         1 HVL       0.046200
     50 H16        -29.3920    -5.0850   -23.5140 hc         1 HVL       0.046200
     51 H17        -26.5660    -5.2900   -25.9130 hc         1 HVL       0.046700
     52 H18        -25.8180    -3.2590   -22.6160 hc         1 HVL       0.034700
     53 H19        -24.3810    -3.9980   -23.2920 hc         1 HVL       0.034700
     54 H20        -24.6950    -2.3060   -23.5510 hc         1 HVL       0.034700
     55 H21        -26.1770    -8.0110   -23.2540 hc         1 HVL       0.058700
     56 H22        -27.0330    -9.6010   -25.6970 hc         1 HVL       0.060700
     57 H23        -29.1010    -9.8930   -24.7200 hc         1 HVL       0.040700
     58 H24        -28.4620   -10.0350   -23.1070 hc         1 HVL       0.040700
     59 H25        -28.6510    -7.7910   -22.6580 hc         1 HVL       0.044200
     60 H26        -29.7520    -7.7180   -24.0190 hc         1 HVL       0.044200
     61 H27        -25.4280    -7.5930   -26.1620 h1         1 HVL       0.025700
     62 H28        -24.6110    -6.0200   -23.6990 hc         1 HVL       0.052200
     63 H29        -24.1680    -5.6820   -25.3530 hc         1 HVL       0.052200
     64 H30        -25.3850   -13.0140   -26.4120 hc         1 HVL       0.048700
     65 H31        -24.2860   -13.9450   -25.4090 hc         1 HVL       0.048700
     66 H32        -26.6740   -14.0910   -24.6380 hc         1 HVL       0.042700
     67 H33        -25.6540   -13.4190   -23.3940 hc         1 HVL       0.042700
     68 H34        -27.4320   -11.8980   -25.3580 hc         1 HVL       0.048700
     69 H35        -27.7140   -12.0640   -23.6330 hc         1 HVL       0.048700
     70 H36        -26.5960   -10.2420   -22.0720 hc         1 HVL       0.044033
     71 H37        -25.3910   -11.5000   -22.2330 hc         1 HVL       0.044033
     72 H38        -24.9510    -9.8190   -22.5240 hc         1 HVL       0.044033
     73 H39        -29.0270    -6.5600   -26.1310 hc         1 HVL       0.035033
     74 H40        -27.4020    -6.8860   -26.7090 hc         1 HVL       0.035033
     75 H41        -28.4660    -8.1970   -26.2770 hc         1 HVL       0.035033
     76 H42        -27.8420    -6.2180   -21.9340 hc         1 HVL       0.034367
     77 H43        -26.1180    -6.2160   -22.2580 hc         1 HVL       0.034367
     78 H44        -26.9890    -4.7160   -22.0980 hc         1 HVL       0.034367
     79 H45        -23.6840   -12.3510   -23.0670 hc         1 HVL       0.044200
     80 H46        -22.4130   -12.7470   -24.2100 hc         1 HVL       0.044200
     81 H47        -22.6610   -11.0720   -23.7220 hc         1 HVL       0.044200
     82 H48        -22.6490   -10.6100   -26.2270 hc         1 HVL       0.044200
     83 H49        -22.6170   -12.3240   -26.6300 hc         1 HVL       0.044200
     84 H50        -23.9110   -11.3020   -27.2580 hc         1 HVL       0.044200
     85 H51        -24.2080    -9.1540   -24.8790 ho         1 HVL       0.439000
     86 H52        -30.1240    -2.8810   -23.5440 ho         1 HVL       0.399000
@<TRIPOS>BOND
     1     1     2 1   
     2     1    35 1   
     3     1    36 1   
     4     1    37 1   
     5     2     3 1   
     6     2     7 1   
     7     2     8 1   
     8     3     4 1   
     9     3     9 1   
    10     3    38 1   
    11     4     5 1   
    12     4    39 1   
    13     4    40 1   
    14     5     6 1   
    15     5    41 1   
    16     5    42 1   
    17     6     7 1   
    18     6    13 1   
    19     6    14 1   
    20     7    10 1   
    21     7    43 1   
    22     8    44 1   
    23     8    45 1   
    24     8    46 1   
    25     9    47 1   
    26    10    11 1   
    27    10    34 1   
    28    10    48 1   
    29    11    12 1   
    30    11    49 1   
    31    11    50 1   
    32    12    13 1   
    33    12    15 1   
    34    12    30 1   
    35    13    21 1   
    36    13    51 1   
    37    14    52 1   
    38    14    53 1   
    39    14    54 1   
    40    15    16 1   
    41    15    19 1   
    42    15    29 1   
    43    16    17 1   
    44    16    20 1   
    45    16    55 1   
    46    17    18 1   
    47    17    22 1   
    48    17    56 1   
    49    18    19 1   
    50    18    57 1   
    51    18    58 1   
    52    19    59 1   
    53    19    60 1   
    54    20    21 1   
    55    20    33 1   
    56    20    61 1   
    57    21    62 1   
    58    21    63 1   
    59    22    23 1   
    60    22    27 1   
    61    22    28 1   
    62    23    24 1   
    63    24    25 1   
    64    24    31 1   
    65    24    32 1   
    66    25    26 1   
    67    25    64 1   
    68    25    65 1   
    69    26    27 1   
    70    26    66 1   
    71    26    67 1   
    72    27    68 1   
    73    27    69 1   
    74    28    70 1   
    75    28    71 1   
    76    28    72 1   
    77    29    73 1   
    78    29    74 1   
    79    29    75 1   
    80    30    76 1   
    81    30    77 1   
    82    30    78 1   
    83    31    79 1   
    84    31    80 1   
    85    31    81 1   
    86    32    82 1   
    87    32    83 1   
    88    32    84 1   
    89    33    85 1   
    90    34    86 1   
@<TRIPOS>SUBSTRUCTURE
     1 HVL         1 TEMP              0 ****  ****    0 ROOT
