@<TRIPOS>MOLECULE
HVL
   86    90     1     0     0
SMALL
No Charge or Current Charge


@<TRIPOS>ATOM
      1 C3         -27.9990    -0.4570   -26.0480 c3         1 HVL      -0.084100
      2 C4         -26.8740    -1.0920   -25.1520 c6         1 HVL      -0.057000
      3 C5         -25.4310    -0.7570   -25.7090 c6         1 HVL       0.174300
      4 C6         -24.9420    -1.8350   -26.7010 c6         1 HVL      -0.072400
      5 C7         -24.8270    -3.2490   -26.0490 c6         1 HVL      -0.075400
      6 C8         -25.8460    -3.5650   -24.8850 c6         1 HVL      -0.025000
      7 C9         -27.1010    -2.6650   -25.1370 c6         1 HVL      -0.032700
      8 C10        -27.0490    -0.4450   -23.7350 c3         1 HVL      -0.084100
      9 O11        -25.3600     0.5330   -26.3380 oh         1 HVL      -0.663000
     10 C22        -28.6700    -3.3380   -23.8310 c6         1 HVL       0.176300
     11 C23        -28.8170    -4.8270   -24.1760 c6         1 HVL      -0.111400
     12 C24        -27.4910    -5.6780   -24.0500 c6         1 HVL      -0.008000
     13 C25        -26.2890    -5.1140   -24.9860 c6         1 HVL      -0.050700
     14 C27        -25.1500    -3.2200   -23.5190 c3         1 HVL      -0.085100
     15 C33        -27.8120    -7.2040   -24.5110 c5         1 HVL      -0.035000
     16 C34        -26.5340    -8.1060   -24.3980 c5         1 HVL      -0.090700
     17 C35        -27.0720    -9.5680   -24.6520 c5         1 HVL      -0.057700
     18 C36        -28.5080    -9.5220   -24.0100 c5         1 HVL      -0.075400
     19 C37        -28.7030    -8.0490   -23.5360 c5         1 HVL      -0.074400
     20 C38        -25.3560    -7.5610   -25.3080 c6         1 HVL       0.194300
     21 C39        -25.0450    -6.0900   -24.9210 c6         1 HVL      -0.077400
     22 C40        -26.1540   -10.8190   -24.1690 c6         1 HVL       0.212000
     23 O41        -24.9470   -10.7630   -25.0250 os         1 HVL      -0.505000
     24 C42        -24.0250   -11.8880   -25.0860 c6         1 HVL       0.203000
     25 C43        -24.8010   -13.2020   -25.3750 c6         1 HVL      -0.099400
     26 C44        -25.9610   -13.4240   -24.3790 c6         1 HVL      -0.073400
     27 C45        -26.9290   -12.2190   -24.3800 c6         1 HVL      -0.099400
     28 C46        -25.7030   -10.6900   -22.6500 c3         1 HVL      -0.115100
     29 C47        -28.4670    -7.2360   -25.9580 c3         1 HVL      -0.087100
     30 C48        -27.0870    -5.6430   -22.5210 c3         1 HVL      -0.087100
     31 C49        -23.1170   -11.9550   -23.8180 c3         1 HVL      -0.102100
     32 C50        -23.0910   -11.5550   -26.2830 c3         1 HVL      -0.102100
     33 O51        -24.1130    -8.3140   -25.2480 oh         1 HVL      -0.693000
     34 O2         -29.8980    -2.6530   -24.0950 oh         1 HVL      -0.664000
     35 H1         -29.0020    -0.7360   -25.7070 hc         1 HVL       0.036533
     36 H2         -27.9650     0.6390   -26.0400 hc         1 HVL       0.036533
     37 H3         -27.9110    -0.7750   -27.0940 hc         1 HVL       0.036533
     38 H4         -24.7240    -0.7520   -24.8700 h1         1 HVL       0.027700
     39 H5         -23.9670    -1.5490   -27.1180 hc         1 HVL       0.052200
     40 H6         -25.6320    -1.8800   -27.5540 hc         1 HVL       0.052200
     41 H7         -24.9380    -3.9820   -26.8590 hc         1 HVL       0.043700
     42 H8         -23.8060    -3.3850   -25.6690 hc         1 HVL       0.043700
     43 H9         -27.4540    -2.9340   -26.1440 hc         1 HVL       0.055700
     44 H10        -26.2750    -0.7600   -23.0290 hc         1 HVL       0.036533
     45 H11        -26.9860     0.6490   -23.7910 hc         1 HVL       0.036533
     46 H12        -28.0210    -0.6840   -23.2910 hc         1 HVL       0.036533
     47 H13        -25.6810     1.1820   -25.6760 ho         1 HVL       0.441000
     48 H14        -28.3750    -3.1970   -22.7820 h1         1 HVL       0.031700
     49 H15        -29.1800    -4.8470   -25.2100 hc         1 HVL       0.046200
     50 H16        -29.6110    -5.2690   -23.5590 hc         1 HVL       0.046200
     51 H17        -26.6540    -5.1890   -26.0140 hc         1 HVL       0.046700
     52 H18        -25.8690    -2.9360   -22.7470 hc         1 HVL       0.034700
     53 H19        -24.5560    -4.0500   -23.1240 hc         1 HVL       0.034700
     54 H20        -24.4530    -2.3820   -23.5990 hc         1 HVL       0.034700
     55 H21        -26.1190    -8.0730   -23.3870 hc         1 HVL       0.058700
     56 H22        -27.1630    -9.7430   -25.7300 hc         1 HVL       0.060700
     57 H23        -29.2710    -9.8130   -24.7400 hc         1 HVL       0.040700
     58 H24        -28.6210   -10.2110   -23.1660 hc         1 HVL       0.040700
     59 H25        -28.3710    -7.9880   -22.4960 hc         1 HVL       0.044200
     60 H26        -29.7570    -7.7470   -23.5500 hc         1 HVL       0.044200
     61 H27        -25.7120    -7.5660   -26.3490 h1         1 HVL       0.025700
     62 H28        -24.6040    -6.0860   -23.9180 hc         1 HVL       0.052200
     63 H29        -24.2450    -5.7470   -25.5860 hc         1 HVL       0.052200
     64 H30        -25.2080   -13.1730   -26.3950 hc         1 HVL       0.048700
     65 H31        -24.1140   -14.0580   -25.3440 hc         1 HVL       0.048700
     66 H32        -26.5110   -14.3330   -24.6550 hc         1 HVL       0.042700
     67 H33        -25.5700   -13.6040   -23.3710 hc         1 HVL       0.042700
     68 H34        -27.4660   -12.1940   -25.3370 hc         1 HVL       0.048700
     69 H35        -27.6930   -12.3580   -23.6030 hc         1 HVL       0.048700
     70 H36        -26.5160   -10.2830   -22.0390 hc         1 HVL       0.044033
     71 H37        -25.4440   -11.6480   -22.1930 hc         1 HVL       0.044033
     72 H38        -24.8530   -10.0080   -22.5380 hc         1 HVL       0.044033
     73 H39        -29.4850    -6.8330   -25.9490 hc         1 HVL       0.035033
     74 H40        -27.9020    -6.6890   -26.7160 hc         1 HVL       0.035033
     75 H41        -28.5860    -8.2410   -26.3700 hc         1 HVL       0.035033
     76 H42        -27.8910    -6.0110   -21.8760 hc         1 HVL       0.034367
     77 H43        -26.1890    -6.2220   -22.2880 hc         1 HVL       0.034367
     78 H44        -26.9030    -4.6410   -22.1430 hc         1 HVL       0.034367
     79 H45        -23.5910   -12.4670   -22.9760 hc         1 HVL       0.044200
     80 H46        -22.1990   -12.5180   -24.0250 hc         1 HVL       0.044200
     81 H47        -22.8120   -10.9540   -23.4890 hc         1 HVL       0.044200
     82 H48        -22.5120   -10.6420   -26.1000 hc         1 HVL       0.044200
     83 H49        -22.3770   -12.3660   -26.4740 hc         1 HVL       0.044200
     84 H50        -23.6660   -11.4010   -27.2050 hc         1 HVL       0.044200
     85 H51        -24.3950    -9.2690   -25.1830 ho         1 HVL       0.478000
     86 H52        -30.5670    -3.0350   -23.4860 ho         1 HVL       0.438000
@<TRIPOS>BOND
     1     1     2 1   
     2     1    35 1   
     3     1    36 1   
     4     1    37 1   
     5     2     3 1   
     6     2     7 1   
     7     2     8 1   
     8     3     4 1   
     9     3     9 1   
    10     3    38 1   
    11     4     5 1   
    12     4    39 1   
    13     4    40 1   
    14     5     6 1   
    15     5    41 1   
    16     5    42 1   
    17     6     7 1   
    18     6    13 1   
    19     6    14 1   
    20     7    10 1   
    21     7    43 1   
    22     8    44 1   
    23     8    45 1   
    24     8    46 1   
    25     9    47 1   
    26    10    11 1   
    27    10    34 1   
    28    10    48 1   
    29    11    12 1   
    30    11    49 1   
    31    11    50 1   
    32    12    13 1   
    33    12    15 1   
    34    12    30 1   
    35    13    21 1   
    36    13    51 1   
    37    14    52 1   
    38    14    53 1   
    39    14    54 1   
    40    15    16 1   
    41    15    19 1   
    42    15    29 1   
    43    16    17 1   
    44    16    20 1   
    45    16    55 1   
    46    17    18 1   
    47    17    22 1   
    48    17    56 1   
    49    18    19 1   
    50    18    57 1   
    51    18    58 1   
    52    19    59 1   
    53    19    60 1   
    54    20    21 1   
    55    20    33 1   
    56    20    61 1   
    57    21    62 1   
    58    21    63 1   
    59    22    23 1   
    60    22    27 1   
    61    22    28 1   
    62    23    24 1   
    63    24    25 1   
    64    24    31 1   
    65    24    32 1   
    66    25    26 1   
    67    25    64 1   
    68    25    65 1   
    69    26    27 1   
    70    26    66 1   
    71    26    67 1   
    72    27    68 1   
    73    27    69 1   
    74    28    70 1   
    75    28    71 1   
    76    28    72 1   
    77    29    73 1   
    78    29    74 1   
    79    29    75 1   
    80    30    76 1   
    81    30    77 1   
    82    30    78 1   
    83    31    79 1   
    84    31    80 1   
    85    31    81 1   
    86    32    82 1   
    87    32    83 1   
    88    32    84 1   
    89    33    85 1   
    90    34    86 1   
@<TRIPOS>SUBSTRUCTURE
     1 HVL         1 TEMP              0 ****  ****    0 ROOT
