@<TRIPOS>MOLECULE
HVM
   60    62     1     0     0
SMALL
bcc


@<TRIPOS>ATOM
      1 C13         -1.5240     1.0710     0.4080 c3         1 HVM      -0.096400
      2 C15          0.9020     1.7770     0.2900 c3         1 HVM      -0.072400
      3 C17          3.2330     2.7220     0.2350 c6         1 HVM      -0.099900
      4 C20          4.3780     0.1890     1.0620 c6         1 HVM       0.096000
      5 C21          2.9250     0.2720     0.6090 c6         1 HVM      -0.099900
      6 C22          6.0540     1.0380    -0.5630 c          1 HVM       0.679700
      7 C24          6.5290    -0.9260    -2.0150 ca         1 HVM      -0.133000
      8 C26          7.7630    -2.8260    -1.1800 ca         1 HVM      -0.183000
      9 C28          7.2660    -0.9860     0.2830 ca         1 HVM      -0.176000
     10 C01        -10.9020    -0.9950    -0.6610 ca         1 HVM      -0.249300
     11 C02        -10.9860     0.0400    -1.5790 ca         1 HVM       0.411200
     12 N03         -9.9520     0.8130    -1.8980 nb         1 HVM      -0.668000
     13 C04         -8.7910     0.5770    -1.3100 ca         1 HVM       0.421200
     14 C05         -8.5840    -0.4380    -0.3700 ca         1 HVM      -0.190100
     15 C06         -9.6820    -1.2340    -0.0500 ca         1 HVM      -0.071000
     16 C07         -7.2970    -0.6920     0.2700 ce         1 HVM      -0.028200
     17 C08         -6.1620    -0.0130     0.0820 cf         1 HVM      -0.242200
     18 C09         -4.9180    -0.3970     0.7940 c          1 HVM       0.668300
     19 O10         -4.8600    -1.3370     1.5800 o          1 HVM      -0.610100
     20 N11         -3.8570     0.3690     0.5000 ns         1 HVM      -0.572900
     21 C12         -2.5410     0.1500     1.0620 c3         1 HVM       0.105000
     22 C14         -0.1170     0.8550     0.9490 c3         1 HVM      -0.071400
     23 C16          2.3200     1.6570     0.8420 c6         1 HVM      -0.057700
     24 C18          4.6680     2.5690     0.7190 c6         1 HVM       0.096000
     25 N19          5.1740     1.2340     0.4400 n          1 HVM      -0.467800
     26 C23          6.6030    -0.3430    -0.7540 ca         1 HVM      -0.100600
     27 C25          7.1010    -2.1770    -2.2080 ca         1 HVM      -0.095000
     28 C27          7.8670    -2.2350     0.0850 ca         1 HVM       0.147600
     29 O29          6.4490     1.9390    -1.2940 o          1 HVM      -0.593100
     30 N30          8.5840    -2.8400     1.0930 nv         1 HVM      -0.824200
     31 H131        -1.5300     0.9030    -0.6730 hc         1 HVM       0.043200
     32 H132        -1.8230     2.1130     0.5660 hc         1 HVM       0.043200
     33 H151         0.9210     1.5870    -0.7890 hc         1 HVM       0.041200
     34 H152         0.5690     2.8140     0.4110 hc         1 HVM       0.041200
     35 H171         3.2090     2.6540    -0.8580 hc         1 HVM       0.049950
     36 H172         2.8740     3.7200     0.4990 hc         1 HVM       0.049950
     37 H201         4.4400     0.3060     2.1480 h1         1 HVM       0.057200
     38 H202         4.7830    -0.7900     0.8220 h1         1 HVM       0.057200
     39 H212         2.8680     0.0220    -0.4570 hc         1 HVM       0.049950
     40 H211         2.3600    -0.4950     1.1430 hc         1 HVM       0.049950
     41 H241         6.0210    -0.4230    -2.8260 ha         1 HVM       0.145000
     42 H261         8.2090    -3.7980    -1.3550 ha         1 HVM       0.131000
     43 H281         7.3260    -0.5190     1.2610 ha         1 HVM       0.135000
     44 H021       -11.9240     0.2540    -2.0790 h4         1 HVM       0.021100
     45 H041        -7.9740     1.2290    -1.6000 h4         1 HVM       0.017100
     46 H061        -9.5800    -2.0340     0.6730 ha         1 HVM       0.142000
     47 H1          -7.2820    -1.5260     0.9640 ha         1 HVM       0.149000
     48 H2          -6.1100     0.8310    -0.5970 ha         1 HVM       0.126000
     49 H111        -3.9740     1.1390    -0.1390 hn         1 HVM       0.313500
     50 H122        -2.2490    -0.8930     0.9110 h1         1 HVM       0.051700
     51 H121        -2.5580     0.3190     2.1430 h1         1 HVM       0.051700
     52 H142        -0.1090     1.0190     2.0320 hc         1 HVM       0.042700
     53 H141         0.1650    -0.1910     0.7950 hc         1 HVM       0.042700
     54 H161         2.2820     1.8300     1.9270 hc         1 HVM       0.045700
     55 H181         5.3200     3.3100     0.2650 h1         1 HVM       0.057200
     56 H182         4.7080     2.7160     1.8030 h1         1 HVM       0.057200
     57 H251         7.0350    -2.6540    -3.1770 ha         1 HVM       0.132000
     58 H301         8.3540    -2.5520     2.0310 hn         1 HVM       0.393300
     59 H302         8.6830    -3.8400     1.0220 hn         1 HVM       0.393300
     60 H011       -11.7700    -1.5970    -0.4330 ha         1 HVM       0.145000
@<TRIPOS>BOND
     1     1    21 1   
     2     1    22 1   
     3     1    31 1   
     4     1    32 1   
     5     2    22 1   
     6     2    23 1   
     7     2    33 1   
     8     2    34 1   
     9     3    23 1   
    10     3    24 1   
    11     3    35 1   
    12     3    36 1   
    13     4     5 1   
    14     4    25 1   
    15     4    37 1   
    16     4    38 1   
    17     5    23 1   
    18     5    39 1   
    19     5    40 1   
    20     6    25 1   
    21     6    26 1   
    22     6    29 2   
    23     7    26 ar  
    24     7    27 ar  
    25     7    41 1   
    26     8    27 ar  
    27     8    28 ar  
    28     8    42 1   
    29     9    26 ar  
    30     9    28 ar  
    31     9    43 1   
    32    10    11 ar  
    33    10    15 ar  
    34    10    60 1   
    35    11    12 ar  
    36    11    44 1   
    37    12    13 ar  
    38    13    14 ar  
    39    13    45 1   
    40    14    15 ar  
    41    14    16 1   
    42    15    46 1   
    43    16    17 2   
    44    16    47 1   
    45    17    18 1   
    46    17    48 1   
    47    18    19 2   
    48    18    20 1   
    49    20    21 1   
    50    20    49 1   
    51    21    50 1   
    52    21    51 1   
    53    22    52 1   
    54    22    53 1   
    55    23    54 1   
    56    24    25 1   
    57    24    55 1   
    58    24    56 1   
    59    27    57 1   
    60    28    30 1   
    61    30    58 1   
    62    30    59 1   
@<TRIPOS>SUBSTRUCTURE
     1 HVM         1 TEMP              0 ****  ****    0 ROOT
