@<TRIPOS>MOLECULE
HVM
   60    62     1     0     0
SMALL
No Charge or Current Charge


@<TRIPOS>ATOM
      1 C13         -1.6220     0.9260     0.2690 c3         1 HVM      -0.096400
      2 C15          0.8460     1.6620     0.1650 c3         1 HVM      -0.072400
      3 C17          3.2070     2.6570     0.1480 c6         1 HVM      -0.099900
      4 C20          4.4070     0.0660     0.8860 c6         1 HVM       0.096000
      5 C21          2.9440     0.1490     0.3880 c6         1 HVM      -0.099900
      6 C22          6.1560     1.0150    -0.6970 c          1 HVM       0.612700
      7 C24          7.4080    -0.7440    -2.0220 ca         1 HVM      -0.115000
      8 C26          8.5170    -2.6260    -0.9510 ca         1 HVM      -0.165000
      9 C28          7.3380    -0.9850     0.3960 ca         1 HVM      -0.158000
     10 C01        -11.3020    -0.6960    -0.3840 ca         1 HVM      -0.166000
     11 C02        -11.3750     0.3820    -1.2810 ca         1 HVM       0.345900
     12 N03        -10.2920     1.1030    -1.6500 nb         1 HVM      -0.668000
     13 C04         -9.0930     0.7580    -1.1220 ca         1 HVM       0.355900
     14 C05         -8.9210    -0.3110    -0.2120 ca         1 HVM      -0.124800
     15 C06        -10.0580    -1.0520     0.1620 ca         1 HVM      -0.053000
     16 C07         -7.5850    -0.6670     0.3530 ce         1 HVM      -0.078200
     17 C08         -6.3740    -0.0790     0.1190 cf         1 HVM      -0.292200
     18 C09         -5.1030    -0.5240     0.7440 c          1 HVM       0.601300
     19 O10         -5.0410    -1.4620     1.5240 o          1 HVM      -0.610100
     20 N11         -3.9960     0.2000     0.3780 ns         1 HVM      -0.505900
     21 C12         -2.6420    -0.0610     0.8680 c3         1 HVM       0.105000
     22 C14         -0.1820     0.6750     0.7680 c3         1 HVM      -0.071400
     23 C16          2.3020     1.5280     0.7080 c6         1 HVM      -0.057700
     24 C18          4.6550     2.5240     0.6730 c6         1 HVM       0.096000
     25 N19          5.2340     1.1900     0.3630 n          1 HVM      -0.400800
     26 C23          6.9610    -0.2710    -0.7680 ca         1 HVM      -0.100600
     27 C25          8.1740    -1.9180    -2.1150 ca         1 HVM      -0.077000
     28 C27          8.1040    -2.1570     0.3030 ca         1 HVM       0.286000
     29 O29          6.3690     1.9210    -1.4950 o          1 HVM      -0.593100
     30 N30          8.4560    -2.8380     1.4360 nv         1 HVM      -1.073000
     31 H131        -1.6440     0.8460    -0.8250 hc         1 HVM       0.043200
     32 H132        -1.9200     1.9500     0.5250 hc         1 HVM       0.043200
     33 H151         0.8470     1.5440    -0.9260 hc         1 HVM       0.041200
     34 H152         0.4880     2.6810     0.3580 hc         1 HVM       0.041200
     35 H171         3.2150     2.6240    -0.9500 hc         1 HVM       0.049950
     36 H172         2.8060     3.6390     0.4310 hc         1 HVM       0.049950
     37 H201         4.4230     0.0950     1.9850 h1         1 HVM       0.057200
     38 H202         4.8140    -0.9050     0.5780 h1         1 HVM       0.057200
     39 H212         2.9190    -0.0300    -0.6960 hc         1 HVM       0.049950
     40 H211         2.3680    -0.6620     0.8530 hc         1 HVM       0.049950
     41 H241         7.1520    -0.2030    -2.9310 ha         1 HVM       0.127000
     42 H261         9.1120    -3.5320    -1.0290 ha         1 HVM       0.113000
     43 H281         7.0510    -0.6170     1.3770 ha         1 HVM       0.117000
     44 H021       -12.3280     0.6770    -1.7180 h4         1 HVM       0.021100
     45 H041        -8.2490     1.3630    -1.4450 h4         1 HVM       0.017100
     46 H061        -9.9830    -1.8850     0.8590 ha         1 HVM       0.124000
     47 H1          -7.6090    -1.5150     1.0420 ha         1 HVM       0.199000
     48 H2          -6.3060     0.7680    -0.5600 ha         1 HVM       0.176000
     49 H111        -4.1380     0.9610    -0.2740 hn         1 HVM       0.313500
     50 H122        -2.3610    -1.0880     0.6020 h1         1 HVM       0.051700
     51 H121        -2.6390     0.0250     1.9630 h1         1 HVM       0.051700
     52 H142        -0.1600     0.7560     1.8620 hc         1 HVM       0.042700
     53 H141         0.1020    -0.3530     0.5150 hc         1 HVM       0.042700
     54 H161         2.2420     1.6420     1.8000 hc         1 HVM       0.045700
     55 H181         5.2770     3.3250     0.2500 h1         1 HVM       0.057200
     56 H182         4.6580     2.6640     1.7640 h1         1 HVM       0.057200
     57 H251         8.5040    -2.2770    -3.0880 ha         1 HVM       0.114000
     58 H301         8.0530    -2.5770     2.3340 hn         1 HVM       0.448500
     59 H302         8.9000    -3.7520     1.3660 hn         1 HVM       0.448500
     60 H011       -12.2020    -1.2440    -0.1200 ha         1 HVM       0.127000
@<TRIPOS>BOND
     1     1    21 1   
     2     1    22 1   
     3     1    31 1   
     4     1    32 1   
     5     2    22 1   
     6     2    23 1   
     7     2    33 1   
     8     2    34 1   
     9     3    23 1   
    10     3    24 1   
    11     3    35 1   
    12     3    36 1   
    13     4     5 1   
    14     4    25 1   
    15     4    37 1   
    16     4    38 1   
    17     5    23 1   
    18     5    39 1   
    19     5    40 1   
    20     6    25 1   
    21     6    26 1   
    22     6    29 2   
    23     7    26 ar  
    24     7    27 ar  
    25     7    41 1   
    26     8    27 ar  
    27     8    28 ar  
    28     8    42 1   
    29     9    26 ar  
    30     9    28 ar  
    31     9    43 1   
    32    10    11 ar  
    33    10    15 ar  
    34    10    60 1   
    35    11    12 ar  
    36    11    44 1   
    37    12    13 ar  
    38    13    14 ar  
    39    13    45 1   
    40    14    15 ar  
    41    14    16 1   
    42    15    46 1   
    43    16    17 2   
    44    16    47 1   
    45    17    18 1   
    46    17    48 1   
    47    18    19 2   
    48    18    20 1   
    49    20    21 1   
    50    20    49 1   
    51    21    50 1   
    52    21    51 1   
    53    22    52 1   
    54    22    53 1   
    55    23    54 1   
    56    24    25 1   
    57    24    55 1   
    58    24    56 1   
    59    27    57 1   
    60    28    30 1   
    61    30    58 1   
    62    30    59 1   
@<TRIPOS>SUBSTRUCTURE
     1 HVM         1 TEMP              0 ****  ****    0 ROOT
