@<TRIPOS>MOLECULE
HVN
   64    68     1     0     0
SMALL
bcc


@<TRIPOS>ATOM
      1 C1           6.1150     0.2660    -0.0620 cc         1 HVN       0.340600
      2 C2           7.8140    -1.5000     2.4200 c3         1 HVN       0.049600
      3 C3           5.7030    -1.5830     1.0850 cd         1 HVN      -0.081600
      4 C7           3.6750    -2.0860    -1.4340 ca         1 HVN      -0.132000
      5 C8           2.4680    -2.2490    -2.1360 ca         1 HVN      -0.188000
      6 C9           1.4710    -1.2960    -2.0740 ca         1 HVN      -0.087000
      7 C10          1.6750    -0.1570    -1.2840 ca         1 HVN      -0.097800
      8 C11          0.8740     0.9880    -0.9710 cc         1 HVN      -0.167400
      9 C12         -0.5150     1.2290    -1.4630 c3         1 HVN       0.021800
     10 C13         -1.5700     0.6330    -0.5320 c3         1 HVN      -0.077400
     11 C14         -2.9760     0.9250    -1.0150 c3         1 HVN       0.136400
     12 C15         -5.2410     0.3870    -0.5390 c6         1 HVN       0.201400
     13 C16         -5.8670     1.7680    -0.3950 c6         1 HVN      -0.107400
     14 C19         -7.3260    -0.4630     0.6410 ca         1 HVN      -0.069300
     15 C20         -7.9900    -1.4820     1.3250 ca         1 HVN      -0.141000
     16 C21         -7.3680    -2.6840     1.6140 ca         1 HVN      -0.132000
     17 C22         -6.0530    -2.8860     1.2130 ca         1 HVN      -0.140000
     18 C24         -6.0020    -0.6670     0.2400 ca         1 HVN      -0.064300
     19 O1           2.2400     3.4790     1.3320 o          1 HVN      -0.817300
     20 O2           0.2020     3.5530     0.4200 o          1 HVN      -0.817300
     21 C25          1.6150     1.7500    -0.0980 cd         1 HVN      -0.082300
     22 N2           2.8240     1.1370     0.1180 na         1 HVN      -0.141400
     23 C26          2.8940    -0.0210    -0.5820 ca         1 HVN      -0.052200
     24 C6           3.9220    -0.9720    -0.6460 ca         1 HVN      -0.025000
     25 C5           5.1760    -0.7800     0.0880 cc         1 HVN      -0.197300
     26 C4           5.1780    -2.8320     1.6960 c3         1 HVN      -0.026800
     27 N1           6.8590    -1.0030     1.4610 na         1 HVN       0.100400
     28 N            7.1270     0.1060     0.7690 nd         1 HVN      -0.541800
     29 C            6.0610     1.4130    -1.0140 c3         1 HVN      -0.123400
     30 O           -3.8980     0.3540    -0.1140 os         1 HVN      -0.410600
     31 C23         -5.3820    -1.8840     0.5310 ca         1 HVN      -0.097000
     32 C18         -8.0440     0.8380     0.3840 c6         1 HVN      -0.030100
     33 C17         -7.3600     1.6920    -0.6720 c6         1 HVN      -0.070400
     34 H1           8.5700    -2.1240     1.9410 h1         1 HVN       0.046367
     35 H2           8.3030    -0.6600     2.9050 h1         1 HVN       0.046367
     36 H3           7.3050    -2.0900     3.1780 h1         1 HVN       0.046367
     37 H4           4.4420    -2.8460    -1.5200 ha         1 HVN       0.108000
     38 H5           2.3280    -3.1360    -2.7400 ha         1 HVN       0.106000
     39 H6           0.5470    -1.4320    -2.6250 ha         1 HVN       0.117000
     40 H7          -0.6920     2.3000    -1.5610 hc         1 HVN       0.039700
     41 H8          -0.6280     0.7970    -2.4630 hc         1 HVN       0.039700
     42 H9          -1.4270    -0.4490    -0.4500 hc         1 HVN       0.057200
     43 H10         -1.4310     1.0530     0.4670 hc         1 HVN       0.057200
     44 H11         -3.1160     2.0110    -1.0970 h1         1 HVN       0.016200
     45 H12         -3.1250     0.5120    -2.0240 h1         1 HVN       0.016200
     46 H13         -5.2870     0.1070    -1.6050 h1         1 HVN       0.030700
     47 H14         -5.6950     2.1380     0.6220 hc         1 HVN       0.057200
     48 H15         -5.3860     2.4720    -1.0780 hc         1 HVN       0.057200
     49 H16         -9.0160    -1.3210     1.6370 ha         1 HVN       0.118000
     50 H17         -7.9040    -3.4590     2.1460 ha         1 HVN       0.120000
     51 H18         -5.5530    -3.8210     1.4300 ha         1 HVN       0.126000
     52 H20          3.5170     1.5070     0.7490 hn         1 HVN       0.319700
     53 H21          5.0350    -2.7260     2.7730 hc         1 HVN       0.047033
     54 H22          4.2160    -3.0820     1.2550 hc         1 HVN       0.047033
     55 H23          5.8500    -3.6770     1.5380 hc         1 HVN       0.047033
     56 H24          5.4410     2.2290    -0.6380 hc         1 HVN       0.051033
     57 H25          7.0570     1.8170    -1.1910 hc         1 HVN       0.051033
     58 H26          5.6410     1.1060    -1.9710 hc         1 HVN       0.051033
     59 H27         -4.3590    -2.0500     0.2200 ha         1 HVN       0.149000
     60 H28         -9.0800     0.6360     0.1030 hc         1 HVN       0.043200
     61 H29         -8.0920     1.4010     1.3220 hc         1 HVN       0.043200
     62 H30         -7.7980     2.6910    -0.6860 hc         1 HVN       0.037200
     63 H31         -7.5290     1.2660    -1.6670 hc         1 HVN       0.037200
     64 C27          1.3210     3.0430     0.6090 c          1 HVN       0.934800
@<TRIPOS>BOND
     1     1    25 1   
     2     1    28 2   
     3     1    29 1   
     4     2    27 1   
     5     2    34 1   
     6     2    35 1   
     7     2    36 1   
     8     3    25 2   
     9     3    26 1   
    10     3    27 1   
    11     4     5 ar  
    12     4    24 ar  
    13     4    37 1   
    14     5     6 ar  
    15     5    38 1   
    16     6     7 ar  
    17     6    39 1   
    18     7     8 1   
    19     7    23 ar  
    20     8     9 1   
    21     8    21 2   
    22     9    10 1   
    23     9    40 1   
    24     9    41 1   
    25    10    11 1   
    26    10    42 1   
    27    10    43 1   
    28    11    30 1   
    29    11    44 1   
    30    11    45 1   
    31    12    13 1   
    32    12    18 1   
    33    12    30 1   
    34    12    46 1   
    35    13    33 1   
    36    13    47 1   
    37    13    48 1   
    38    14    15 ar  
    39    14    18 ar  
    40    14    32 1   
    41    15    16 ar  
    42    15    49 1   
    43    16    17 ar  
    44    16    50 1   
    45    17    31 ar  
    46    17    51 1   
    47    18    31 ar  
    48    19    64 1   
    49    20    64 1   
    50    21    22 1   
    51    21    64 1   
    52    22    23 1   
    53    22    52 1   
    54    23    24 ar  
    55    24    25 1   
    56    26    53 1   
    57    26    54 1   
    58    26    55 1   
    59    27    28 1   
    60    29    56 1   
    61    29    57 1   
    62    29    58 1   
    63    31    59 1   
    64    32    33 1   
    65    32    60 1   
    66    32    61 1   
    67    33    62 1   
    68    33    63 1   
@<TRIPOS>SUBSTRUCTURE
     1 HVN         1 TEMP              0 ****  ****    0 ROOT
