@<TRIPOS>MOLECULE
HVN
   64    68     1     0     0
SMALL
No Charge or Current Charge


@<TRIPOS>ATOM
      1 C1           6.1020     0.3840     0.2090 cc         1 HVN       0.275300
      2 C2           7.8460    -1.7640     2.3880 c3         1 HVN       0.078900
      3 C3           5.7400    -1.6940     0.9160 cd         1 HVN      -0.132300
      4 C7           3.6100    -2.0780    -1.2610 ca         1 HVN      -0.114000
      5 C8           2.3670    -2.2370    -1.9140 ca         1 HVN      -0.170000
      6 C9           1.4120    -1.2050    -1.8840 ca         1 HVN      -0.069000
      7 C10          1.7350    -0.0320    -1.1880 ca         1 HVN      -0.097800
      8 C11          0.9390     1.1450    -0.9600 cc         1 HVN      -0.167400
      9 C12         -0.4520     1.3540    -1.5150 c3         1 HVN       0.021800
     10 C13         -1.5430     0.7070    -0.6380 c3         1 HVN      -0.077400
     11 C14         -2.9590     0.8850    -1.2150 c3         1 HVN       0.159600
     12 C15         -5.2680     0.1870    -0.7180 c6         1 HVN       0.224600
     13 C16         -5.8780     1.6140    -0.7440 c6         1 HVN      -0.107400
     14 C19         -7.2920    -0.4690     0.7540 ca         1 HVN      -0.069300
     15 C20         -7.9430    -1.3910     1.5970 ca         1 HVN      -0.123000
     16 C21         -7.3470    -2.6250     1.9010 ca         1 HVN      -0.114000
     17 C22         -6.0930    -2.9470     1.3620 ca         1 HVN      -0.122000
     18 C24         -6.0150    -0.7840     0.2200 ca         1 HVN      -0.064300
     19 O1           2.1450     3.8580     1.1780 o          1 HVN      -0.712000
     20 O2           0.2210     3.7830     0.2400 o          1 HVN      -0.712000
     21 C25          1.7090     1.9670    -0.1200 cd         1 HVN      -0.082300
     22 N2           2.9510     1.3290     0.1270 na         1 HVN      -0.191700
     23 C26          2.9390     0.1270    -0.5570 ca         1 HVN      -0.052200
     24 C6           3.9280    -0.8820    -0.5720 ca         1 HVN      -0.025000
     25 C5           5.2400    -0.7300     0.0810 cc         1 HVN      -0.132000
     26 C4           5.1960    -3.0490     1.3160 c3         1 HVN      -0.026800
     27 N1           6.9100    -1.1290     1.4450 na         1 HVN       0.121800
     28 N            7.1280     0.1690     1.0050 nd         1 HVN      -0.541800
     29 C            5.9590     1.6690    -0.5620 c3         1 HVN      -0.123400
     30 O           -3.8770     0.2270    -0.3260 os         1 HVN      -0.457000
     31 C23         -5.4330    -2.0330     0.5250 ca         1 HVN      -0.079000
     32 C18         -7.9820     0.8630     0.4450 c6         1 HVN      -0.030100
     33 C17         -7.4160     1.5610    -0.8080 c6         1 HVN      -0.070400
     34 H1           8.0980    -2.7700     2.0310 h1         1 HVN       0.046367
     35 H2           8.7640    -1.1690     2.4670 h1         1 HVN       0.046367
     36 H3           7.3750    -1.8360     3.3760 h1         1 HVN       0.046367
     37 H4           4.3400    -2.8810    -1.3210 ha         1 HVN       0.090000
     38 H5           2.1480    -3.1610    -2.4440 ha         1 HVN       0.088000
     39 H6           0.4500    -1.3240    -2.3750 ha         1 HVN       0.099000
     40 H7          -0.6690     2.4180    -1.6550 hc         1 HVN       0.039700
     41 H8          -0.5070     0.9170    -2.5200 hc         1 HVN       0.039700
     42 H9          -1.3310    -0.3630    -0.5300 hc         1 HVN       0.057200
     43 H10         -1.5050     1.1480     0.3650 hc         1 HVN       0.057200
     44 H11         -3.1860     1.9560    -1.2950 h1         1 HVN       0.016200
     45 H12         -3.0060     0.4400    -2.2180 h1         1 HVN       0.016200
     46 H13         -5.3270    -0.2340    -1.7320 h1         1 HVN       0.030700
     47 H14         -5.5660     2.1690     0.1510 hc         1 HVN       0.057200
     48 H15         -5.4960     2.1700    -1.6110 hc         1 HVN       0.057200
     49 H16         -8.9170    -1.1500     2.0160 ha         1 HVN       0.100000
     50 H17         -7.8590    -3.3310     2.5510 ha         1 HVN       0.102000
     51 H18         -5.6310    -3.9050     1.5920 ha         1 HVN       0.108000
     52 H20          3.6850     1.6790     0.7320 hn         1 HVN       0.370000
     53 H21          5.5100    -3.3290     2.3280 hc         1 HVN       0.047033
     54 H22          4.1000    -3.0580     1.3090 hc         1 HVN       0.047033
     55 H23          5.5460    -3.8310     0.6310 hc         1 HVN       0.047033
     56 H24          5.5580     2.4670     0.0720 hc         1 HVN       0.051033
     57 H25          6.9330     2.0030    -0.9380 hc         1 HVN       0.051033
     58 H26          5.3020     1.5460    -1.4300 hc         1 HVN       0.051033
     59 H27         -4.4620    -2.2960     0.1100 ha         1 HVN       0.131000
     60 H28         -9.0610     0.7080     0.3170 hc         1 HVN       0.043200
     61 H29         -7.8700     1.5290     1.3130 hc         1 HVN       0.043200
     62 H30         -7.8280     2.5770    -0.8890 hc         1 HVN       0.037200
     63 H31         -7.7320     1.0200    -1.7110 hc         1 HVN       0.037200
     64 C27          1.3210     3.2990     0.4660 c          1 HVN       0.724200
@<TRIPOS>BOND
     1     1    25 1   
     2     1    28 2   
     3     1    29 1   
     4     2    27 1   
     5     2    34 1   
     6     2    35 1   
     7     2    36 1   
     8     3    25 2   
     9     3    26 1   
    10     3    27 1   
    11     4     5 ar  
    12     4    24 ar  
    13     4    37 1   
    14     5     6 ar  
    15     5    38 1   
    16     6     7 ar  
    17     6    39 1   
    18     7     8 1   
    19     7    23 ar  
    20     8     9 1   
    21     8    21 2   
    22     9    10 1   
    23     9    40 1   
    24     9    41 1   
    25    10    11 1   
    26    10    42 1   
    27    10    43 1   
    28    11    30 1   
    29    11    44 1   
    30    11    45 1   
    31    12    13 1   
    32    12    18 1   
    33    12    30 1   
    34    12    46 1   
    35    13    33 1   
    36    13    47 1   
    37    13    48 1   
    38    14    15 ar  
    39    14    18 ar  
    40    14    32 1   
    41    15    16 ar  
    42    15    49 1   
    43    16    17 ar  
    44    16    50 1   
    45    17    31 ar  
    46    17    51 1   
    47    18    31 ar  
    48    19    64 1   
    49    20    64 1   
    50    21    22 1   
    51    21    64 1   
    52    22    23 1   
    53    22    52 1   
    54    23    24 ar  
    55    24    25 1   
    56    26    53 1   
    57    26    54 1   
    58    26    55 1   
    59    27    28 1   
    60    29    56 1   
    61    29    57 1   
    62    29    58 1   
    63    31    59 1   
    64    32    33 1   
    65    32    60 1   
    66    32    61 1   
    67    33    62 1   
    68    33    63 1   
@<TRIPOS>SUBSTRUCTURE
     1 HVN         1 TEMP              0 ****  ****    0 ROOT
