@<TRIPOS>MOLECULE
HVO
   41    42     1     0     0
SMALL
No Charge or Current Charge


@<TRIPOS>ATOM
      1 C1          21.0310    54.1410    12.3530 ca         1 HVO       0.164100
      2 C2          20.7190    54.4400    11.0150 ca         1 HVO      -0.180000
      3 C3          20.7760    53.4350    10.0360 ca         1 HVO      -0.030000
      4 C4          21.1400    52.1120    10.3810 ca         1 HVO      -0.215600
      5 C5          21.4400    51.8210    11.7340 ca         1 HVO      -0.030000
      6 C6          21.3800    52.8320    12.7090 ca         1 HVO      -0.180000
      7 C10         20.9940    58.7710    13.5180 ca         1 HVO      -0.203000
      8 C11         20.6150    57.4380    13.7150 ca         1 HVO      -0.070000
      9 C12         22.9030    58.0640    12.1230 ca         1 HVO      -0.077300
     10 C13         22.4930    56.7190    12.3470 ca         1 HVO      -0.096000
     11 C20         21.5900    49.6140     9.6720 c3         1 HVO      -0.195100
     12 C9          22.1160    59.0900    12.7330 ca         1 HVO       0.144100
     13 C8          21.3570    56.4130    13.1200 ca         1 HVO       0.055100
     14 O7          20.9740    55.1070    13.3330 os         1 HVO      -0.245200
     15 O14         22.4110    60.4150    12.5930 oh         1 HVO      -0.531100
     16 C16         24.8510    57.0990    10.6830 c3         1 HVO      -0.084433
     17 C17         23.7600    59.2390    10.0100 c3         1 HVO      -0.084433
     18 C18         25.2370    59.1260    12.0860 c3         1 HVO      -0.084433
     19 C19         21.1960    51.0450     9.3040 c          1 HVO       0.589700
     20 O21         20.9290    51.3150     8.1390 o          1 HVO      -0.531100
     21 H1          20.4270    55.4480    10.7330 ha         1 HVO       0.131000
     22 H2          20.5340    53.6900     9.0060 ha         1 HVO       0.124000
     23 H3          21.7200    50.8180    12.0480 ha         1 HVO       0.124000
     24 H4          21.6110    52.6000    13.7450 ha         1 HVO       0.131000
     25 H5          20.4050    59.5590    13.9820 ha         1 HVO       0.117000
     26 H6          19.7450    57.1970    14.3230 ha         1 HVO       0.131000
     27 H7          23.0440    55.8830    11.9320 ha         1 HVO       0.132000
     28 H8          21.5950    48.9420     8.8060 hc         1 HVO       0.060367
     29 H9          22.5640    49.6280    10.1730 hc         1 HVO       0.060367
     30 H10         20.9190    49.2480    10.4580 hc         1 HVO       0.060367
     31 H11         21.7470    60.9340    13.0930 ho         1 HVO       0.464000
     32 H12         25.2060    56.4500    11.4930 hc         1 HVO       0.037589
     33 H13         24.1660    56.5260    10.0460 hc         1 HVO       0.037589
     34 H14         25.7230    57.3570    10.0700 hc         1 HVO       0.037589
     35 H15         23.4110    60.2370    10.2910 hc         1 HVO       0.037589
     36 H16         24.6130    59.3800     9.3350 hc         1 HVO       0.037589
     37 H17         22.9600    58.7480     9.4440 hc         1 HVO       0.037589
     38 H18         25.4850    58.5540    12.9880 hc         1 HVO       0.037589
     39 H19         26.1610    59.2640    11.5100 hc         1 HVO       0.037589
     40 H20         24.9060    60.1210    12.3980 hc         1 HVO       0.037589
     41 C15         24.1630    58.3810    11.2430 c3         1 HVO       0.014300
@<TRIPOS>BOND
     1     1     2 ar  
     2     1     6 ar  
     3     1    14 1   
     4     2     3 ar  
     5     2    21 1   
     6     3     4 ar  
     7     3    22 1   
     8     4     5 ar  
     9     4    19 1   
    10     5     6 ar  
    11     5    23 1   
    12     6    24 1   
    13     7     8 ar  
    14     7    12 ar  
    15     7    25 1   
    16     8    13 ar  
    17     8    26 1   
    18     9    10 ar  
    19     9    12 ar  
    20     9    41 1   
    21    10    13 ar  
    22    10    27 1   
    23    11    19 1   
    24    11    28 1   
    25    11    29 1   
    26    11    30 1   
    27    12    15 1   
    28    13    14 1   
    29    15    31 1   
    30    16    32 1   
    31    16    33 1   
    32    16    34 1   
    33    16    41 1   
    34    17    35 1   
    35    17    36 1   
    36    17    37 1   
    37    17    41 1   
    38    18    38 1   
    39    18    39 1   
    40    18    40 1   
    41    18    41 1   
    42    19    20 2   
@<TRIPOS>SUBSTRUCTURE
     1 HVO         1 TEMP              0 ****  ****    0 ROOT
