@<TRIPOS>MOLECULE
HVO
   41    42     1     0     0
SMALL
bcc


@<TRIPOS>ATOM
      1 C1          21.4130    54.0240    12.3550 ca         1 HVO       0.164100
      2 C2          21.0040    54.3850    11.0720 ca         1 HVO      -0.198000
      3 C3          20.8000    53.4010    10.1230 ca         1 HVO      -0.048000
      4 C4          20.9930    52.0510    10.4200 ca         1 HVO      -0.215600
      5 C5          21.3960    51.7110    11.7130 ca         1 HVO      -0.048000
      6 C6          21.6060    52.6810    12.6730 ca         1 HVO      -0.198000
      7 C10         20.9020    58.4730    13.2340 ca         1 HVO      -0.221000
      8 C11         20.7470    57.1200    13.4910 ca         1 HVO      -0.088000
      9 C12         23.0120    58.0790    12.0840 ca         1 HVO      -0.077300
     10 C13         22.8350    56.7290    12.3690 ca         1 HVO      -0.114000
     11 C20         20.9940    49.5860     9.7100 c3         1 HVO      -0.195100
     12 C9          22.0090    58.9560    12.5430 ca         1 HVO       0.144100
     13 C8          21.7260    56.2540    13.0560 ca         1 HVO       0.055100
     14 O7          21.6240    54.9110    13.3520 os         1 HVO      -0.245200
     15 O14         22.1360    60.2800    12.3060 oh         1 HVO      -0.492100
     16 C16         25.1600    57.3980    10.9270 c3         1 HVO      -0.084433
     17 C17         23.8380    59.2720    10.0230 c3         1 HVO      -0.084433
     18 C18         25.0780    59.5060    12.2080 c3         1 HVO      -0.084433
     19 C19         20.7670    51.0330     9.3640 c          1 HVO       0.589700
     20 O21         20.4080    51.3640     8.2520 o          1 HVO      -0.531100
     21 H1          20.8430    55.4220    10.8080 ha         1 HVO       0.149000
     22 H2          20.4820    53.6930     9.1320 ha         1 HVO       0.142000
     23 H3          21.5570    50.6760    11.9870 ha         1 HVO       0.142000
     24 H4          21.9220    52.4060    13.6710 ha         1 HVO       0.149000
     25 H5          20.1410    59.1660    13.5750 ha         1 HVO       0.135000
     26 H6          19.8780    56.7580    14.0260 ha         1 HVO       0.149000
     27 H7          23.5780    56.0100    12.0530 ha         1 HVO       0.150000
     28 H8          20.7940    48.9560     8.8470 hc         1 HVO       0.060367
     29 H9          22.0220    49.4200    10.0360 hc         1 HVO       0.060367
     30 H10         20.3460    49.2740    10.5310 hc         1 HVO       0.060367
     31 H11         21.3830    60.7580    12.6710 ho         1 HVO       0.425000
     32 H12         25.5470    56.8600    11.7940 hc         1 HVO       0.037589
     33 H13         24.6580    56.6810    10.2750 hc         1 HVO       0.037589
     34 H14         26.0190    57.7870    10.3780 hc         1 HVO       0.037589
     35 H15         23.2480    60.1680    10.1950 hc         1 HVO       0.037589
     36 H16         24.7320    59.5670     9.4690 hc         1 HVO       0.037589
     37 H17         23.2610    58.6010     9.3830 hc         1 HVO       0.037589
     38 H18         25.3810    59.0030    13.1280 hc         1 HVO       0.037589
     39 H19         25.9860    59.8050    11.6800 hc         1 HVO       0.037589
     40 H20         24.5430    60.4130    12.4800 hc         1 HVO       0.037589
     41 C15         24.2480    58.5640    11.3230 c3         1 HVO       0.014300
@<TRIPOS>BOND
     1     1     2 ar  
     2     1     6 ar  
     3     1    14 1   
     4     2     3 ar  
     5     2    21 1   
     6     3     4 ar  
     7     3    22 1   
     8     4     5 ar  
     9     4    19 1   
    10     5     6 ar  
    11     5    23 1   
    12     6    24 1   
    13     7     8 ar  
    14     7    12 ar  
    15     7    25 1   
    16     8    13 ar  
    17     8    26 1   
    18     9    10 ar  
    19     9    12 ar  
    20     9    41 1   
    21    10    13 ar  
    22    10    27 1   
    23    11    19 1   
    24    11    28 1   
    25    11    29 1   
    26    11    30 1   
    27    12    15 1   
    28    13    14 1   
    29    15    31 1   
    30    16    32 1   
    31    16    33 1   
    32    16    34 1   
    33    16    41 1   
    34    17    35 1   
    35    17    36 1   
    36    17    37 1   
    37    17    41 1   
    38    18    38 1   
    39    18    39 1   
    40    18    40 1   
    41    18    41 1   
    42    19    20 2   
@<TRIPOS>SUBSTRUCTURE
     1 HVO         1 TEMP              0 ****  ****    0 ROOT
