@<TRIPOS>MOLECULE
HVP
   18    18     1     0     0
SMALL
No Charge or Current Charge


@<TRIPOS>ATOM
      1 C1          -0.7040     0.7200    -0.0630 ca         1 HVP      -0.231500
      2 C2           0.7390     0.7270     0.0040 ca         1 HVP      -0.091500
      3 C4           0.6830     3.1910     0.0590 ca         1 HVP      -0.085000
      4 C5          -0.7120     3.1780     0.0170 ca         1 HVP      -0.131000
      5 O4           1.1620    -1.6900     0.9820 o          1 HVP      -0.674200
      6 S2           1.8420    -0.8110     0.0200 s6         1 HVP       1.244100
      7 O3           1.7880    -1.2330    -1.3880 o          1 HVP      -0.674200
      8 C3           1.3960     1.9840     0.0510 ca         1 HVP      -0.066000
      9 C6          -1.3970     1.9580    -0.0440 ca         1 HVP      -0.061000
     10 S1          -1.7450    -0.7930    -0.1700 sy         1 HVP       1.333400
     11 O1          -3.1510    -0.4130    -0.3910 o          1 HVP      -0.551500
     12 O2          -1.1040    -1.8320    -0.9890 o          1 HVP      -0.551500
     13 F1          -1.6820    -1.3290     1.3690 f          1 HVP      -0.248900
     14 H1           1.2180     4.1380     0.1000 ha         1 HVP       0.097000
     15 H2          -1.2660     4.1140     0.0270 ha         1 HVP       0.097000
     16 H5           2.4810     2.0390     0.0830 ha         1 HVP       0.144000
     17 H6          -2.4850     1.9870    -0.0820 ha         1 HVP       0.125000
     18 O5           3.1410    -0.2810     0.4630 o          1 HVP      -0.674200
@<TRIPOS>BOND
     1     1     2 ar  
     2     1     9 ar  
     3     1    10 1   
     4     2     6 1   
     5     2     8 ar  
     6     3     4 ar  
     7     3     8 ar  
     8     3    14 1   
     9     4     9 ar  
    10     4    15 1   
    11     5     6 1   
    12     6     7 1   
    13     6    18 1   
    14     8    16 1   
    15     9    17 1   
    16    10    11 2   
    17    10    12 2   
    18    10    13 1   
@<TRIPOS>SUBSTRUCTURE
     1 HVP         1 TEMP              0 ****  ****    0 ROOT
