@<TRIPOS>MOLECULE
HVP
   18    18     1     0     0
SMALL
bcc


@<TRIPOS>ATOM
      1 C1          -0.6790     0.7290    -0.0460 ca         1 HVP      -0.231500
      2 C2           0.7210     0.7210     0.0090 ca         1 HVP      -0.091500
      3 C4           0.6630     3.1420     0.0530 ca         1 HVP      -0.103000
      4 C5          -0.7190     3.1330     0.0040 ca         1 HVP      -0.149000
      5 O4           1.1330    -1.6860     0.9420 o          1 HVP      -0.674200
      6 S2           1.7760    -0.7580     0.0060 s6         1 HVP       1.244100
      7 O3           1.7960    -1.1960    -1.3930 o          1 HVP      -0.674200
      8 C3           1.3690     1.9470     0.0580 ca         1 HVP      -0.084000
      9 C6          -1.3920     1.9230    -0.0450 ca         1 HVP      -0.079000
     10 S1          -1.6790    -0.7270    -0.1580 sy         1 HVP       1.475000
     11 O1          -3.0550    -0.3510    -0.3560 o          1 HVP      -0.622300
     12 O2          -1.0920    -1.7470    -0.9780 o          1 HVP      -0.622300
     13 F1          -1.6170    -1.2380     1.3520 f          1 HVP      -0.248900
     14 H1           1.2030     4.0790     0.0920 ha         1 HVP       0.115000
     15 H2          -1.2810     4.0560     0.0050 ha         1 HVP       0.115000
     16 H5           2.4480     1.9740     0.1070 ha         1 HVP       0.162000
     17 H6          -2.4710     1.9250    -0.0840 ha         1 HVP       0.143000
     18 O5           3.0800    -0.2730     0.4800 o          1 HVP      -0.674200
@<TRIPOS>BOND
     1     1     2 ar  
     2     1     9 ar  
     3     1    10 1   
     4     2     6 1   
     5     2     8 ar  
     6     3     4 ar  
     7     3     8 ar  
     8     3    14 1   
     9     4     9 ar  
    10     4    15 1   
    11     5     6 1   
    12     6     7 1   
    13     6    18 1   
    14     8    16 1   
    15     9    17 1   
    16    10    11 2   
    17    10    12 2   
    18    10    13 1   
@<TRIPOS>SUBSTRUCTURE
     1 HVP         1 TEMP              0 ****  ****    0 ROOT
