@<TRIPOS>MOLECULE
HVQ
   15    15     1     0     0
SMALL
No Charge or Current Charge


@<TRIPOS>ATOM
      1 C2           2.0300     0.0290     0.6270 c3         1 HVQ       0.192900
      2 C3           0.5660    -0.0490     0.3290 cc         1 HVQ      -0.226300
      3 C5          -1.4310    -1.1920    -0.1190 cd         1 HVQ      -0.232000
      4 C7          -0.2900     1.0160     0.1760 cd         1 HVQ      -0.226000
      5 N1           2.8160     0.2450    -0.6200 nz         1 HVQ      -0.977000
      6 C4          -0.0920    -1.2950     0.1570 cc         1 HVQ      -0.130000
      7 S6          -1.9500     0.4990    -0.1810 ss         1 HVQ       0.377000
      8 H11          2.2240     0.8540     1.3220 hx         1 HVQ       0.104700
      9 H12          2.3630    -0.8980     1.1070 hx         1 HVQ       0.104700
     10 H14         -2.1490    -1.9850    -0.2900 h4         1 HVQ       0.179000
     11 H15         -0.0670     2.0730     0.2480 h4         1 HVQ       0.165000
     12 H8           2.6740    -0.5100    -1.3050 hn         1 HVQ       0.508667
     13 H9           2.5480     1.1140    -1.1030 hn         1 HVQ       0.508667
     14 H10          3.8320     0.3040    -0.4560 hn         1 HVQ       0.508667
     15 H13          0.4320    -2.2440     0.2400 ha         1 HVQ       0.142000
@<TRIPOS>BOND
     1     1     2 1   
     2     1     5 1   
     3     1     8 1   
     4     1     9 1   
     5     2     4 2   
     6     2     6 1   
     7     3     6 2   
     8     3     7 1   
     9     3    10 1   
    10     4     7 1   
    11     4    11 1   
    12     5    12 1   
    13     5    13 1   
    14     5    14 1   
    15     6    15 1   
@<TRIPOS>SUBSTRUCTURE
     1 HVQ         1 TEMP              0 ****  ****    0 ROOT
