@<TRIPOS>MOLECULE
HVQ
   15    15     1     0     0
SMALL
abcg2


@<TRIPOS>ATOM
      1 C2           2.0050     0.1430     0.6350 c3         1 HVQ       0.192900
      2 C3           0.5520    -0.0270     0.3490 cc         1 HVQ      -0.226300
      3 C5          -1.3930    -1.1580    -0.1990 cd         1 HVQ      -0.232000
      4 C7          -0.3420     1.0030     0.3400 cd         1 HVQ      -0.226000
      5 N1           2.8020     0.1240    -0.6270 nz         1 HVQ      -0.977000
      6 C4          -0.0600    -1.2760     0.0370 cc         1 HVQ      -0.130000
      7 S6          -1.9170     0.4670    -0.0410 ss         1 HVQ       0.377000
      8 H11          2.2160     1.0930     1.1190 hx         1 HVQ       0.104700
      9 H12          2.3960    -0.6590     1.2580 hx         1 HVQ       0.104700
     10 H14         -2.0960    -1.9370    -0.4490 h4         1 HVQ       0.179000
     11 H15         -0.1490     2.0460     0.5440 h4         1 HVQ       0.165000
     12 H8           2.6880    -0.7490    -1.1430 hn         1 HVQ       0.508667
     13 H9           2.5340     0.8820    -1.2540 hn         1 HVQ       0.508667
     14 H10          3.7990     0.2280    -0.4370 hn         1 HVQ       0.508667
     15 H13          0.4710    -2.2180     0.0010 ha         1 HVQ       0.142000
@<TRIPOS>BOND
     1     1     2 1   
     2     1     5 1   
     3     1     8 1   
     4     1     9 1   
     5     2     4 2   
     6     2     6 1   
     7     3     6 2   
     8     3     7 1   
     9     3    10 1   
    10     4     7 1   
    11     4    11 1   
    12     5    12 1   
    13     5    13 1   
    14     5    14 1   
    15     6    15 1   
@<TRIPOS>SUBSTRUCTURE
     1 HVQ         1 TEMP              0 ****  ****    0 ROOT
