@<TRIPOS>MOLECULE
HVR
   46    47     1     0     0
SMALL
abcg2


@<TRIPOS>ATOM
      1 C01          5.2330     3.7250    15.1170 c3         1 HVR      -0.086100
      2 C02          6.4670     3.2480    15.8810 c3         1 HVR      -0.133700
      3 C03          7.6680     4.0910    15.5660 ca         1 HVR       0.184300
      4 C05          8.6620     6.1320    15.7170 ca         1 HVR       0.401900
      5 C08          9.8060     4.5200    14.6050 ca         1 HVR       0.399900
      6 C10          8.7490     3.6160    14.8560 ca         1 HVR      -0.129900
      7 C12          8.2250     2.0460    13.1780 c3         1 HVR       0.154600
      8 C13          8.6790     0.6830    12.6950 c3         1 HVR      -0.080400
      9 C14          8.5140    -0.4400    13.6970 c3         1 HVR       0.176600
     10 C16          6.7560    -1.4150    14.9580 ca         1 HVR       0.613300
     11 C18          7.2210    -3.1520    16.3530 ca         1 HVR       0.389900
     12 C19          5.9130    -3.2480    16.7850 ca         1 HVR      -0.210000
     13 C20          4.9870    -2.3600    16.2540 ca         1 HVR      -0.023000
     14 C21          5.3910    -1.4150    15.3210 ca         1 HVR      -0.050000
     15 C22          4.4800    -0.4830    14.7550 cg         1 HVR      -0.078000
     16 C23          3.6850     0.2980    14.2980 c1         1 HVR      -0.127100
     17 C24          2.7220     1.2320    13.7290 c3         1 HVR       0.253700
     18 N04          7.6240     5.3560    16.0040 nb         1 HVR      -0.282000
     19 N06          8.5980     7.4290    16.1200 nv         1 HVR      -1.047900
     20 N07          9.7550     5.7720    15.0420 nb         1 HVR      -0.324000
     21 N09         10.8840     4.1350    13.8960 nv         1 HVR      -1.063900
     22 N17          7.6330    -2.2560    15.4570 nb         1 HVR      -0.763000
     23 O11          8.8690     2.3280    14.4170 os         1 HVR      -0.352100
     24 O15          7.1350    -0.5120    14.0610 os         1 HVR      -0.456300
     25 O25          2.0380     1.8830    14.7760 oh         1 HVR      -0.650000
     26 H012         4.3580     3.1370    15.3900 hc         1 HVR       0.038700
     27 H011         5.0180     4.7700    15.3370 hc         1 HVR       0.038700
     28 H013         5.3740     3.6310    14.0400 hc         1 HVR       0.038700
     29 H021         6.2760     3.3190    16.9540 hc         1 HVR       0.064700
     30 H022         6.6580     2.1970    15.6630 hc         1 HVR       0.064700
     31 H121         7.1370     2.0730    13.3050 h1         1 HVR       0.039200
     32 H122         8.4830     2.8030    12.4300 h1         1 HVR       0.039200
     33 H132         8.1350     0.4500    11.7760 hc         1 HVR       0.054700
     34 H131         9.7370     0.7210    12.4260 hc         1 HVR       0.054700
     35 H142         8.8350    -1.3850    13.2520 h1         1 HVR       0.055200
     36 H141         9.1270    -0.2710    14.5840 h1         1 HVR       0.055200
     37 H181         7.9790    -3.8240    16.7380 h4         1 HVR       0.019100
     38 H191         5.6240    -3.9910    17.5130 ha         1 HVR       0.129000
     39 H201         3.9490    -2.3940    16.5600 ha         1 HVR       0.129000
     40 H241         3.2620     1.9390    13.0870 h1         1 HVR       0.035700
     41 H242         2.0360     0.6770    13.0760 h1         1 HVR       0.035700
     42 H062         7.9260     7.6520    16.8350 hn         1 HVR       0.483000
     43 H061         9.4600     7.9440    16.1600 hn         1 HVR       0.483000
     44 H092        11.6890     4.7400    13.8930 hn         1 HVR       0.490000
     45 H091        11.0600     3.1550    13.7590 hn         1 HVR       0.490000
     46 H251         1.4700     2.5530    14.3800 ho         1 HVR       0.446000
@<TRIPOS>BOND
     1     1     2 1   
     2     1    26 1   
     3     1    27 1   
     4     1    28 1   
     5     2     3 1   
     6     2    29 1   
     7     2    30 1   
     8     3     6 ar  
     9     3    18 ar  
    10     4    18 ar  
    11     4    19 1   
    12     4    20 ar  
    13     5     6 ar  
    14     5    20 ar  
    15     5    21 1   
    16     6    23 1   
    17     7     8 1   
    18     7    23 1   
    19     7    31 1   
    20     7    32 1   
    21     8     9 1   
    22     8    33 1   
    23     8    34 1   
    24     9    24 1   
    25     9    35 1   
    26     9    36 1   
    27    10    14 ar  
    28    10    22 ar  
    29    10    24 1   
    30    11    12 ar  
    31    11    22 ar  
    32    11    37 1   
    33    12    13 ar  
    34    12    38 1   
    35    13    14 ar  
    36    13    39 1   
    37    14    15 1   
    38    15    16 3   
    39    16    17 1   
    40    17    25 1   
    41    17    40 1   
    42    17    41 1   
    43    19    42 1   
    44    19    43 1   
    45    21    44 1   
    46    21    45 1   
    47    25    46 1   
@<TRIPOS>SUBSTRUCTURE
     1 HVR         1 TEMP              0 ****  ****    0 ROOT
