@<TRIPOS>MOLECULE
HVR
   46    47     1     0     0
SMALL
No Charge or Current Charge


@<TRIPOS>ATOM
      1 C01          6.3700     2.2210    16.4620 c3         1 HVR      -0.086100
      2 C02          7.8410     2.5840    16.7430 c3         1 HVR      -0.133700
      3 C03          8.3050     3.7950    15.9390 ca         1 HVR       0.184300
      4 C05          8.4810     6.0680    15.7800 ca         1 HVR       0.401900
      5 C08          9.2920     4.8810    14.0310 ca         1 HVR       0.399900
      6 C10          8.9140     3.6770    14.6690 ca         1 HVR      -0.129900
      7 C12          8.3750     2.0190    12.9580 c3         1 HVR       0.154600
      8 C13          8.7470     0.5560    12.6400 c3         1 HVR      -0.080400
      9 C14          8.4260    -0.4340    13.7790 c3         1 HVR       0.176600
     10 C16          6.4190    -1.1560    15.0020 ca         1 HVR       0.613300
     11 C18          6.6090    -2.7150    16.7090 ca         1 HVR       0.389900
     12 C19          5.2430    -2.6180    17.0130 ca         1 HVR      -0.210000
     13 C20          4.4340    -1.7470    16.2690 ca         1 HVR      -0.023000
     14 C21          5.0300    -1.0000    15.2400 ca         1 HVR      -0.050000
     15 C22          4.2260    -0.0920    14.4670 cg         1 HVR      -0.078000
     16 C23          3.5550     0.6870    13.8190 c1         1 HVR      -0.127100
     17 C24          2.7880     1.6580    13.0320 c3         1 HVR       0.253700
     18 N04          8.0850     5.0060    16.4930 nb         1 HVR      -0.282000
     19 N06          8.2630     7.2780    16.3420 nv         1 HVR      -1.047900
     20 N07          9.0780     6.0800    14.5840 nb         1 HVR      -0.324000
     21 N09          9.9380     4.9150    12.8340 nv         1 HVR      -1.063900
     22 N17          7.1940    -2.0020    15.7230 nb         1 HVR      -0.763000
     23 O11          9.1390     2.4330    14.1050 os         1 HVR      -0.352100
     24 O15          7.0030    -0.4190    13.9920 os         1 HVR      -0.456300
     25 O25          1.3940     1.3360    13.0700 oh         1 HVR      -0.650000
     26 H012         6.0780     1.3290    17.0290 hc         1 HVR       0.038700
     27 H011         5.7050     3.0440    16.7490 hc         1 HVR       0.038700
     28 H013         6.2210     2.0160    15.3950 hc         1 HVR       0.038700
     29 H021         7.9610     2.7740    17.8170 hc         1 HVR       0.064700
     30 H022         8.4710     1.7150    16.5200 hc         1 HVR       0.064700
     31 H121         7.2990     2.0910    13.1630 h1         1 HVR       0.039200
     32 H122         8.5980     2.6480    12.0880 h1         1 HVR       0.039200
     33 H132         8.2160     0.2420    11.7340 hc         1 HVR       0.054700
     34 H131         9.8180     0.5010    12.4110 hc         1 HVR       0.054700
     35 H142         8.7660    -1.4390    13.4930 h1         1 HVR       0.055200
     36 H141         8.9640    -0.1360    14.6890 h1         1 HVR       0.055200
     37 H181         7.2560    -3.3850    17.2730 h4         1 HVR       0.019100
     38 H191         4.8240    -3.2150    17.8180 ha         1 HVR       0.129000
     39 H201         3.3710    -1.6550    16.4880 ha         1 HVR       0.129000
     40 H241         2.9630     2.6610    13.4430 h1         1 HVR       0.035700
     41 H242         3.1590     1.6470    11.9990 h1         1 HVR       0.035700
     42 H062         8.0230     7.3160    17.3300 hn         1 HVR       0.483000
     43 H061         8.7370     8.0890    15.9520 hn         1 HVR       0.483000
     44 H092        10.3930     5.7830    12.5660 hn         1 HVR       0.490000
     45 H091        10.3760     4.0560    12.5140 hn         1 HVR       0.490000
     46 H251         0.9370     2.0170    12.5280 ho         1 HVR       0.446000
@<TRIPOS>BOND
     1     1     2 1   
     2     1    26 1   
     3     1    27 1   
     4     1    28 1   
     5     2     3 1   
     6     2    29 1   
     7     2    30 1   
     8     3     6 ar  
     9     3    18 ar  
    10     4    18 ar  
    11     4    19 1   
    12     4    20 ar  
    13     5     6 ar  
    14     5    20 ar  
    15     5    21 1   
    16     6    23 1   
    17     7     8 1   
    18     7    23 1   
    19     7    31 1   
    20     7    32 1   
    21     8     9 1   
    22     8    33 1   
    23     8    34 1   
    24     9    24 1   
    25     9    35 1   
    26     9    36 1   
    27    10    14 ar  
    28    10    22 ar  
    29    10    24 1   
    30    11    12 ar  
    31    11    22 ar  
    32    11    37 1   
    33    12    13 ar  
    34    12    38 1   
    35    13    14 ar  
    36    13    39 1   
    37    14    15 1   
    38    15    16 3   
    39    16    17 1   
    40    17    25 1   
    41    17    40 1   
    42    17    41 1   
    43    19    42 1   
    44    19    43 1   
    45    21    44 1   
    46    21    45 1   
    47    25    46 1   
@<TRIPOS>SUBSTRUCTURE
     1 HVR         1 TEMP              0 ****  ****    0 ROOT
