@<TRIPOS>MOLECULE
HVS
   27    27     1     0     0
SMALL
abcg2


@<TRIPOS>ATOM
      1 C10         -1.1650    -0.2880     0.0600 c          1 HVS       0.552900
      2 C12         -2.6700    -0.2050    -0.0100 ca         1 HVS      -0.077600
      3 C13         -3.3850     0.9450     0.3270 ca         1 HVS      -0.098000
      4 C01          1.3800     2.5030    -0.5610 c3         1 HVS      -0.043900
      5 C02          0.9430     1.1080    -0.1830 ce         1 HVS       0.073800
      6 C03          1.8820     0.1360     0.1480 ce         1 HVS      -0.404000
      7 C04          3.2970     0.3030     0.1910 cf         1 HVS       0.450300
      8 C06          4.1230    -0.9400     0.6560 c          1 HVS       0.631000
      9 C09         -0.4530     0.9070    -0.1950 cf         1 HVS      -0.558200
     10 C14         -4.7730     0.9640     0.2770 ca         1 HVS      -0.142500
     11 C15         -5.4730    -0.1680    -0.1220 ca         1 HVS      -0.157000
     12 C16         -4.7730    -1.3210    -0.4560 ca         1 HVS      -0.142500
     13 C17         -3.3880    -1.3410    -0.3880 ca         1 HVS      -0.098000
     14 O05          3.9260     1.3290    -0.0970 o          1 HVS      -0.686300
     15 O07          3.5090    -2.0110     0.8390 o          1 HVS      -0.737000
     16 O08          5.3430    -0.7500     0.8060 o          1 HVS      -0.737000
     17 O11         -0.6770    -1.4060     0.3060 o          1 HVS      -0.678100
     18 H131        -2.8600     1.8330     0.6550 ha         1 HVS       0.122000
     19 H012         0.5190     3.1400    -0.7630 hc         1 HVS       0.013033
     20 H011         1.9720     2.9690     0.2260 hc         1 HVS       0.013033
     21 H013         2.0110     2.4990    -1.4500 hc         1 HVS       0.013033
     22 H031         1.5170    -0.8400     0.4170 ha         1 HVS       0.223000
     23 H091        -1.0500     1.7700    -0.4620 ha         1 HVS       0.115000
     24 H141        -5.3070     1.8630     0.5560 ha         1 HVS       0.078500
     25 H151        -6.5540    -0.1530    -0.1660 ha         1 HVS       0.074000
     26 H161        -5.3090    -2.2080    -0.7690 ha         1 HVS       0.078500
     27 H171        -2.8530    -2.2480    -0.6410 ha         1 HVS       0.122000
@<TRIPOS>BOND
     1     1     2 1   
     2     1     9 1   
     3     1    17 2   
     4     2     3 ar  
     5     2    13 ar  
     6     3    10 ar  
     7     3    18 1   
     8     4     5 1   
     9     4    19 1   
    10     4    20 1   
    11     4    21 1   
    12     5     6 1   
    13     5     9 2   
    14     6     7 2   
    15     6    22 1   
    16     7     8 1   
    17     7    14 1   
    18     8    15 1   
    19     8    16 1   
    20     9    23 1   
    21    10    11 ar  
    22    10    24 1   
    23    11    12 ar  
    24    11    25 1   
    25    12    13 ar  
    26    12    26 1   
    27    13    27 1   
@<TRIPOS>SUBSTRUCTURE
     1 HVS         1 TEMP              0 ****  ****    0 ROOT
