@<TRIPOS>MOLECULE
HVS
   27    27     1     0     0
SMALL
No Charge or Current Charge


@<TRIPOS>ATOM
      1 C10         -1.1590    -0.2670    -0.0050 c          1 HVS       0.552900
      2 C12         -2.6750    -0.2450    -0.0600 ca         1 HVS      -0.077600
      3 C13         -3.4100     0.9080     0.3030 ca         1 HVS      -0.098000
      4 C01          1.4540     2.6590    -0.4320 c3         1 HVS      -0.043900
      5 C02          0.9330     1.2550    -0.1470 ce         1 HVS       0.073800
      6 C03          1.9120     0.2710     0.3490 ce         1 HVS      -0.404000
      7 C04          3.2260     0.0940    -0.0140 cf         1 HVS       0.450300
      8 C06          4.0900    -1.0210     0.6750 c          1 HVS       0.631000
      9 C09         -0.4100     1.0110    -0.2410 cf         1 HVS      -0.558200
     10 C14         -4.8150     0.9050     0.2510 ca         1 HVS      -0.142500
     11 C15         -5.5040    -0.2470    -0.1570 ca         1 HVS      -0.157000
     12 C16         -4.7880    -1.4010    -0.5090 ca         1 HVS      -0.142500
     13 C17         -3.3830    -1.4020    -0.4580 ca         1 HVS      -0.098000
     14 O05          3.7230     0.8080    -0.9050 o          1 HVS      -0.686300
     15 O07          3.5980    -1.7190     1.5610 o          1 HVS      -0.737000
     16 O08          5.2610    -1.1870     0.3310 o          1 HVS      -0.737000
     17 O11         -0.5700    -1.3180     0.2140 o          1 HVS      -0.678100
     18 H131        -2.8990     1.8050     0.6420 ha         1 HVS       0.122000
     19 H012         0.6900     3.4220    -0.2410 hc         1 HVS       0.013033
     20 H011         2.3130     2.9110     0.2010 hc         1 HVS       0.013033
     21 H013         1.7630     2.7620    -1.4790 hc         1 HVS       0.013033
     22 H031         1.5340    -0.4120     1.1040 ha         1 HVS       0.223000
     23 H091        -1.0280     1.8440    -0.5640 ha         1 HVS       0.115000
     24 H141        -5.3690     1.7980     0.5330 ha         1 HVS       0.078500
     25 H151        -6.5910    -0.2470    -0.1960 ha         1 HVS       0.074000
     26 H161        -5.3200    -2.2960    -0.8220 ha         1 HVS       0.078500
     27 H171        -2.8410    -2.3030    -0.7350 ha         1 HVS       0.122000
@<TRIPOS>BOND
     1     1     2 1   
     2     1     9 1   
     3     1    17 2   
     4     2     3 ar  
     5     2    13 ar  
     6     3    10 ar  
     7     3    18 1   
     8     4     5 1   
     9     4    19 1   
    10     4    20 1   
    11     4    21 1   
    12     5     6 1   
    13     5     9 2   
    14     6     7 2   
    15     6    22 1   
    16     7     8 1   
    17     7    14 1   
    18     8    15 1   
    19     8    16 1   
    20     9    23 1   
    21    10    11 ar  
    22    10    24 1   
    23    11    12 ar  
    24    11    25 1   
    25    12    13 ar  
    26    12    26 1   
    27    13    27 1   
@<TRIPOS>SUBSTRUCTURE
     1 HVS         1 TEMP              0 ****  ****    0 ROOT
