@<TRIPOS>MOLECULE
HVT
   86    88     1     0     0
SMALL
abcg2


@<TRIPOS>ATOM
      1 CAN         14.0040    13.9670     7.1220 ca         1 HVT      -0.091000
      2 CAO         14.2080    12.5720     6.9950 ca         1 HVT      -0.033000
      3 CBF         15.0680    12.0220     6.0130 ca         1 HVT      -0.100000
      4 CBG         15.2430    10.6640     5.9130 ca         1 HVT      -0.108000
      5 CBH         14.5660     9.7900     6.7920 ca         1 HVT      -0.109000
      6 CBI         13.7250    10.2920     7.7550 ca         1 HVT      -0.095000
      7 CAP         13.5230    11.6880     7.8820 ca         1 HVT      -0.032000
      8 CAQ         12.6650    12.2450     8.8630 ca         1 HVT      -0.089000
      9 CAR         12.4890    13.6010     8.9530 ca         1 HVT      -0.092000
     10 CAM         13.1590    14.4870     8.0730 ca         1 HVT      -0.070300
     11 CAD         12.8920    15.9640     8.1500 c3         1 HVT      -0.046100
     12 CAE         11.6270    16.3740     7.3670 c3         1 HVT       0.081700
     13 NAB         11.7550    16.0670     5.9570 ns         1 HVT      -0.504900
     14 CAJ         11.1660    15.0320     5.3250 c          1 HVT       0.600100
     15 OBL         10.4730    14.1940     5.9050 o          1 HVT      -0.590100
     16 CAS         11.3840    15.0060     3.8240 c3         1 HVT      -0.158400
     17 CAU         10.6410    16.1490     3.1140 c3         1 HVT      -0.069400
     18 CAV          9.1310    16.1170     3.3370 c3         1 HVT      -0.086400
     19 CAW          8.4090    17.3000     2.6940 c3         1 HVT      -0.070400
     20 CAX          6.8830    17.1910     2.7290 c3         1 HVT      -0.072400
     21 CAY          6.2690    17.2000     4.1290 c3         1 HVT      -0.081400
     22 CBC          4.7460    17.0860     4.0920 c3         1 HVT      -0.068400
     23 CBB          4.0580    17.1920     5.4540 c3         1 HVT      -0.076400
     24 CBA          4.4200    16.0710     6.4300 c3         1 HVT      -0.076400
     25 CAZ          3.5500    16.0450     7.6870 c3         1 HVT      -0.092400
     26 CAT          3.7050    17.2640     8.5990 c3         1 HVT       0.101000
     27 NAC          5.0420    17.3740     9.1640 ns         1 HVT      -0.498900
     28 C            5.9510    18.2950     8.8050 c          1 HVT       0.591100
     29 O            5.7550    19.1570     7.9500 o          1 HVT      -0.608100
     30 CA           7.2740    18.2260     9.5890 c3         1 HVT       0.041700
     31 CB           7.2710    19.1350    10.8400 c3         1 HVT      -0.067700
     32 CG2          6.9910    20.6070    10.5300 c3         1 HVT      -0.090600
     33 CG1          6.3110    18.6170    11.9110 c3         1 HVT      -0.090600
     34 N            8.3850    18.5730     8.7280 ns         1 HVT      -0.494900
     35 CAH          8.8100    17.7710     7.7330 c          1 HVT       0.595100
     36 OBJ          8.2950    16.6750     7.5080 o          1 HVT      -0.590100
     37 CAG          9.9870    18.2990     6.9390 c3         1 HVT      -0.154400
     38 CAF         11.3310    17.8740     7.5350 c3         1 HVT       0.165300
     39 OBM         12.3250    18.6650     6.8720 oh         1 HVT      -0.673000
     40 H1          14.5250    14.6310     6.4420 ha         1 HVT       0.106000
     41 H2          15.5870    12.6950     5.3400 ha         1 HVT       0.109000
     42 H3          15.9030    10.2560     5.1570 ha         1 HVT       0.111000
     43 H4          14.7130     8.7210     6.7030 ha         1 HVT       0.112000
     44 H5          13.2030     9.6260     8.4310 ha         1 HVT       0.113000
     45 H6          12.1470    11.5790     9.5430 ha         1 HVT       0.113000
     46 H7          11.8250    14.0110     9.7050 ha         1 HVT       0.110000
     47 H8          13.7500    16.5100     7.7510 hc         1 HVT       0.044200
     48 H9          12.7580    16.2680     9.1910 hc         1 HVT       0.044200
     49 H10         10.7780    15.8080     7.7450 h1         1 HVT       0.107700
     50 H11         12.3250    16.6980     5.4140 hn         1 HVT       0.314500
     51 H12         11.0300    14.0410     3.4610 hc         1 HVT       0.064200
     52 H13         12.4550    15.0750     3.6130 hc         1 HVT       0.064200
     53 H14         10.8540    16.0870     2.0430 hc         1 HVT       0.037700
     54 H15         11.0410    17.1090     3.4530 hc         1 HVT       0.037700
     55 H16          8.7290    15.1810     2.9330 hc         1 HVT       0.053700
     56 H17          8.9220    16.1020     4.4090 hc         1 HVT       0.053700
     57 H18          8.7320    17.3880     1.6510 hc         1 HVT       0.032700
     58 H19          8.7210    18.2250     3.1930 hc         1 HVT       0.032700
     59 H20          6.4530    18.0170     2.1520 hc         1 HVT       0.034200
     60 H21          6.5820    16.2700     2.2150 hc         1 HVT       0.034200
     61 H22          6.6850    16.3820     4.7210 hc         1 HVT       0.048700
     62 H23          6.5540    18.1260     4.6440 hc         1 HVT       0.048700
     63 H24          4.3510    17.8700     3.4370 hc         1 HVT       0.031200
     64 H25          4.4730    16.1320     3.6250 hc         1 HVT       0.031200
     65 H26          4.3020    18.1590     5.9040 hc         1 HVT       0.041700
     66 H27          2.9730    17.1840     5.3010 hc         1 HVT       0.041700
     67 H28          4.3140    15.1080     5.9170 hc         1 HVT       0.050200
     68 H29          5.4710    16.1490     6.7190 hc         1 HVT       0.050200
     69 H30          2.4950    15.9780     7.4010 hc         1 HVT       0.039700
     70 H31          3.7730    15.1460     8.2700 hc         1 HVT       0.039700
     71 H32          3.5060    18.1860     8.0590 h1         1 HVT       0.054700
     72 H33          2.9920    17.1970     9.4230 h1         1 HVT       0.054700
     73 H34          5.3160    16.6800     9.8420 hn         1 HVT       0.309500
     74 H35          7.4210    17.1970     9.9210 h1         1 HVT       0.070700
     75 H36          8.2880    19.0580    11.2390 hc         1 HVT       0.049700
     76 H37          7.1160    21.2010    11.4370 hc         1 HVT       0.041033
     77 H38          7.6650    21.0150     9.7750 hc         1 HVT       0.041033
     78 H39          5.9680    20.7440    10.1740 hc         1 HVT       0.041033
     79 H40          6.4340    19.1940    12.8290 hc         1 HVT       0.041033
     80 H41          5.2710    18.7140    11.5930 hc         1 HVT       0.041033
     81 H42          6.5000    17.5660    12.1410 hc         1 HVT       0.041033
     82 H43          8.7950    19.4880     8.8170 hn         1 HVT       0.321500
     83 H44          9.9650    19.3890     6.9210 hc         1 HVT       0.081700
     84 H45          9.9020    17.9350     5.9150 hc         1 HVT       0.081700
     85 H46         11.3360    18.1030     8.6050 h1         1 HVT       0.035700
     86 H47         13.1400    18.6400     7.3880 ho         1 HVT       0.446000
@<TRIPOS>BOND
     1     1     2 ar  
     2     1    10 ar  
     3     1    40 1   
     4     2     3 ar  
     5     2     7 ar  
     6     3     4 ar  
     7     3    41 1   
     8     4     5 ar  
     9     4    42 1   
    10     5     6 ar  
    11     5    43 1   
    12     6     7 ar  
    13     6    44 1   
    14     7     8 ar  
    15     8     9 ar  
    16     8    45 1   
    17     9    10 ar  
    18     9    46 1   
    19    10    11 1   
    20    11    12 1   
    21    11    47 1   
    22    11    48 1   
    23    12    13 1   
    24    12    38 1   
    25    12    49 1   
    26    13    14 1   
    27    13    50 1   
    28    14    15 2   
    29    14    16 1   
    30    16    17 1   
    31    16    51 1   
    32    16    52 1   
    33    17    18 1   
    34    17    53 1   
    35    17    54 1   
    36    18    19 1   
    37    18    55 1   
    38    18    56 1   
    39    19    20 1   
    40    19    57 1   
    41    19    58 1   
    42    20    21 1   
    43    20    59 1   
    44    20    60 1   
    45    21    22 1   
    46    21    61 1   
    47    21    62 1   
    48    22    23 1   
    49    22    63 1   
    50    22    64 1   
    51    23    24 1   
    52    23    65 1   
    53    23    66 1   
    54    24    25 1   
    55    24    67 1   
    56    24    68 1   
    57    25    26 1   
    58    25    69 1   
    59    25    70 1   
    60    26    27 1   
    61    26    71 1   
    62    26    72 1   
    63    27    28 1   
    64    27    73 1   
    65    28    29 2   
    66    28    30 1   
    67    30    31 1   
    68    30    34 1   
    69    30    74 1   
    70    31    32 1   
    71    31    33 1   
    72    31    75 1   
    73    32    76 1   
    74    32    77 1   
    75    32    78 1   
    76    33    79 1   
    77    33    80 1   
    78    33    81 1   
    79    34    35 1   
    80    34    82 1   
    81    35    36 2   
    82    35    37 1   
    83    37    38 1   
    84    37    83 1   
    85    37    84 1   
    86    38    39 1   
    87    38    85 1   
    88    39    86 1   
@<TRIPOS>SUBSTRUCTURE
     1 HVT         1 TEMP              0 ****  ****    0 ROOT
