@<TRIPOS>MOLECULE
HVT
   86    88     1     0     0
SMALL
No Charge or Current Charge


@<TRIPOS>ATOM
      1 CAN         14.2010    13.8390     7.1330 ca         1 HVT      -0.091000
      2 CAO         14.3840    12.4610     6.9130 ca         1 HVT      -0.033000
      3 CBF         15.3180    12.0130     5.9590 ca         1 HVT      -0.100000
      4 CBG         15.4980    10.6350     5.7420 ca         1 HVT      -0.108000
      5 CBH         14.7450     9.7030     6.4750 ca         1 HVT      -0.109000
      6 CBI         13.8110    10.1450     7.4280 ca         1 HVT      -0.095000
      7 CAP         13.6270    11.5230     7.6490 ca         1 HVT      -0.032000
      8 CAQ         12.6920    11.9730     8.6000 ca         1 HVT      -0.089000
      9 CAR         12.5110    13.3500     8.8140 ca         1 HVT      -0.092000
     10 CAM         13.2630    14.2900     8.0830 ca         1 HVT      -0.070300
     11 CAD         13.0490    15.7830     8.3060 c3         1 HVT      -0.046100
     12 CAE         11.8310    16.3340     7.5230 c3         1 HVT       0.081700
     13 NAB         11.9950    16.1010     6.0790 ns         1 HVT      -0.504900
     14 CAJ         11.2690    15.2010     5.3340 c          1 HVT       0.600100
     15 OBL         10.4700    14.4190     5.8280 o          1 HVT      -0.590100
     16 CAS         11.5370    15.2660     3.8280 c3         1 HVT      -0.158400
     17 CAU         10.6090    16.2810     3.1110 c3         1 HVT      -0.069400
     18 CAV          9.0950    16.0170     3.2850 c3         1 HVT      -0.086400
     19 CAW          8.2240    17.0360     2.5150 c3         1 HVT      -0.070400
     20 CAX          6.7010    16.7810     2.6070 c3         1 HVT      -0.072400
     21 CAY          6.0930    16.9910     4.0150 c3         1 HVT      -0.081400
     22 CBC          4.5550    16.8230     4.0210 c3         1 HVT      -0.068400
     23 CBB          3.8760    17.1100     5.3810 c3         1 HVT      -0.076400
     24 CBA          4.2560    16.1210     6.5100 c3         1 HVT      -0.076400
     25 CAZ          3.3780    16.2560     7.7800 c3         1 HVT      -0.092400
     26 CAT          3.5270    17.5850     8.5540 c3         1 HVT       0.101000
     27 NAC          4.8370    17.7070     9.2000 ns         1 HVT      -0.498900
     28 C            5.8810    18.4910     8.7510 c          1 HVT       0.591100
     29 O            5.7830    19.1870     7.7470 o          1 HVT      -0.608100
     30 CA           7.1810    18.4000     9.6110 c3         1 HVT       0.041700
     31 CB           7.1570    19.3030    10.8840 c3         1 HVT      -0.067700
     32 CG2          6.9170    20.8010    10.5700 c3         1 HVT      -0.090600
     33 CG1          6.1660    18.7990    11.9590 c3         1 HVT      -0.090600
     34 N            8.3700    18.7170     8.7890 ns         1 HVT      -0.494900
     35 CAH          8.9970    17.8170     7.9580 c          1 HVT       0.595100
     36 OBJ          8.5830    16.6780     7.8120 o          1 HVT      -0.590100
     37 CAG         10.2120    18.3630     7.2100 c3         1 HVT      -0.154400
     38 CAF         11.5390    17.8430     7.8150 c3         1 HVT       0.165300
     39 OBM         12.6000    18.6600     7.2950 oh         1 HVT      -0.673000
     40 H1          14.7800    14.5600     6.5620 ha         1 HVT       0.106000
     41 H2          15.9040    12.7280     5.3870 ha         1 HVT       0.109000
     42 H3          16.2200    10.2920     5.0040 ha         1 HVT       0.111000
     43 H4          14.8850     8.6370     6.3060 ha         1 HVT       0.112000
     44 H5          13.2310     9.4170     7.9920 ha         1 HVT       0.113000
     45 H6          12.1040    11.2590     9.1700 ha         1 HVT       0.113000
     46 H7          11.7810    13.6870     9.5460 ha         1 HVT       0.110000
     47 H8          13.9520    16.3360     8.0180 hc         1 HVT       0.044200
     48 H9          12.9020    15.9770     9.3760 hc         1 HVT       0.044200
     49 H10         10.9600    15.7620     7.8700 h1         1 HVT       0.107700
     50 H11         12.6110    16.7220     5.5700 hn         1 HVT       0.314500
     51 H12         11.3880    14.2730     3.3880 hc         1 HVT       0.064200
     52 H13         12.5650    15.6090     3.6570 hc         1 HVT       0.064200
     53 H14         10.8520    16.2780     2.0410 hc         1 HVT       0.037700
     54 H15         10.8370    17.2890     3.4790 hc         1 HVT       0.037700
     55 H16          8.8610    15.0020     2.9390 hc         1 HVT       0.053700
     56 H17          8.8390    16.0630     4.3500 hc         1 HVT       0.053700
     57 H18          8.5120    17.0130     1.4560 hc         1 HVT       0.032700
     58 H19          8.4420    18.0490     2.8750 hc         1 HVT       0.032700
     59 H20          6.2000    17.4590     1.9050 hc         1 HVT       0.034200
     60 H21          6.4840    15.7620     2.2640 hc         1 HVT       0.034200
     61 H22          6.5380    16.2740     4.7150 hc         1 HVT       0.048700
     62 H23          6.3480    17.9950     4.3750 hc         1 HVT       0.048700
     63 H24          4.1250    17.5030     3.2750 hc         1 HVT       0.031200
     64 H25          4.3000    15.8060     3.6990 hc         1 HVT       0.031200
     65 H26          4.1130    18.1340     5.6900 hc         1 HVT       0.041700
     66 H27          2.7900    17.0730     5.2310 hc         1 HVT       0.041700
     67 H28          4.1530    15.0960     6.1310 hc         1 HVT       0.050200
     68 H29          5.3110    16.2490     6.7800 hc         1 HVT       0.050200
     69 H30          2.3260    16.1360     7.4940 hc         1 HVT       0.039700
     70 H31          3.6070    15.4260     8.4600 hc         1 HVT       0.039700
     71 H32          3.3510    18.4380     7.8850 h1         1 HVT       0.054700
     72 H33          2.7610    17.6230     9.3390 h1         1 HVT       0.054700
     73 H34          5.0080    17.1590    10.0340 hn         1 HVT       0.309500
     74 H35          7.2740    17.3570     9.9400 h1         1 HVT       0.070700
     75 H36          8.1540    19.2290    11.3370 hc         1 HVT       0.049700
     76 H37          6.9950    21.4020    11.4840 hc         1 HVT       0.041033
     77 H38          7.6590    21.1830     9.8580 hc         1 HVT       0.041033
     78 H39          5.9190    20.9620    10.1460 hc         1 HVT       0.041033
     79 H40          6.2990    19.3570    12.8940 hc         1 HVT       0.041033
     80 H41          5.1260    18.9300    11.6380 hc         1 HVT       0.041033
     81 H42          6.3320    17.7370    12.1770 hc         1 HVT       0.041033
     82 H43          8.7520    19.6540     8.8260 hn         1 HVT       0.321500
     83 H44         10.2130    19.4560     7.2800 hc         1 HVT       0.081700
     84 H45         10.1470    18.0660     6.1570 hc         1 HVT       0.081700
     85 H46         11.4800    17.9760     8.9040 h1         1 HVT       0.035700
     86 H47         13.3950    18.4910     7.8450 ho         1 HVT       0.446000
@<TRIPOS>BOND
     1     1     2 ar  
     2     1    10 ar  
     3     1    40 1   
     4     2     3 ar  
     5     2     7 ar  
     6     3     4 ar  
     7     3    41 1   
     8     4     5 ar  
     9     4    42 1   
    10     5     6 ar  
    11     5    43 1   
    12     6     7 ar  
    13     6    44 1   
    14     7     8 ar  
    15     8     9 ar  
    16     8    45 1   
    17     9    10 ar  
    18     9    46 1   
    19    10    11 1   
    20    11    12 1   
    21    11    47 1   
    22    11    48 1   
    23    12    13 1   
    24    12    38 1   
    25    12    49 1   
    26    13    14 1   
    27    13    50 1   
    28    14    15 2   
    29    14    16 1   
    30    16    17 1   
    31    16    51 1   
    32    16    52 1   
    33    17    18 1   
    34    17    53 1   
    35    17    54 1   
    36    18    19 1   
    37    18    55 1   
    38    18    56 1   
    39    19    20 1   
    40    19    57 1   
    41    19    58 1   
    42    20    21 1   
    43    20    59 1   
    44    20    60 1   
    45    21    22 1   
    46    21    61 1   
    47    21    62 1   
    48    22    23 1   
    49    22    63 1   
    50    22    64 1   
    51    23    24 1   
    52    23    65 1   
    53    23    66 1   
    54    24    25 1   
    55    24    67 1   
    56    24    68 1   
    57    25    26 1   
    58    25    69 1   
    59    25    70 1   
    60    26    27 1   
    61    26    71 1   
    62    26    72 1   
    63    27    28 1   
    64    27    73 1   
    65    28    29 2   
    66    28    30 1   
    67    30    31 1   
    68    30    34 1   
    69    30    74 1   
    70    31    32 1   
    71    31    33 1   
    72    31    75 1   
    73    32    76 1   
    74    32    77 1   
    75    32    78 1   
    76    33    79 1   
    77    33    80 1   
    78    33    81 1   
    79    34    35 1   
    80    34    82 1   
    81    35    36 2   
    82    35    37 1   
    83    37    38 1   
    84    37    83 1   
    85    37    84 1   
    86    38    39 1   
    87    38    85 1   
    88    39    86 1   
@<TRIPOS>SUBSTRUCTURE
     1 HVT         1 TEMP              0 ****  ****    0 ROOT
