@<TRIPOS>MOLECULE
HVU
   35    37     1     0     0
SMALL
No Charge or Current Charge


@<TRIPOS>ATOM
      1 CA          93.2650   120.3650   117.0260 c6         1 HVU      -0.068900
      2 CA1         92.1390   119.5350   117.7080 c6         1 HVU       0.169300
      3 CB          93.2650   120.1970   115.4870 c6         1 HVU       0.023500
      4 CB1         91.8720   120.5600   114.8980 c6         1 HVU      -0.068900
      5 CG          94.3670   121.0120   114.8400 cc         1 HVU      -0.146400
      6 CD1         95.4070   120.4360   114.1140 cd         1 HVU      -0.150100
      7 CD2         94.6120   122.4320   114.8120 ca         1 HVU      -0.051800
      8 CE2         95.7550   122.6410   114.0910 ca         1 HVU      -0.081200
      9 CE3         93.8910   123.4980   115.3740 ca         1 HVU      -0.165000
     10 NE1         96.2800   121.4440   113.6410 na         1 HVU      -0.222700
     11 CZ2         96.2650   123.9300   113.8790 ca         1 HVU      -0.094000
     12 CZ3         94.3800   124.8060   115.1760 ca         1 HVU       0.108100
     13 NZ          91.1110   119.0250   116.7530 n3         1 HVU      -0.724600
     14 CH2         95.5620   125.0210   114.4320 ca         1 HVU      -0.118000
     15 OH          93.7120   125.8710   115.7040 oh         1 HVU      -0.541100
     16 CJ          89.9720   118.3810   117.4400 c3         1 HVU       0.158100
     17 CF1         90.6910   120.0740   115.7860 c6         1 HVU       0.169300
     18 H1          94.2400   120.0740   117.4390 hc         1 HVU       0.043950
     19 H2          93.1280   121.4230   117.2850 hc         1 HVU       0.043950
     20 H3          92.5990   118.6840   118.2300 h1         1 HVU       0.028450
     21 H4          91.6670   120.1600   118.4810 h1         1 HVU       0.028450
     22 H5          93.4440   119.1330   115.2780 hc         1 HVU       0.057700
     23 H6          91.7840   120.1130   113.8980 hc         1 HVU       0.043950
     24 H7          91.7770   121.6430   114.7510 hc         1 HVU       0.043950
     25 H8          95.5880   119.3850   113.9020 h4         1 HVU       0.212000
     26 H9          92.9820   123.3210   115.9410 ha         1 HVU       0.114000
     27 H10         97.1210   121.3150   113.0850 hn         1 HVU       0.350000
     28 H11         97.1750   124.0870   113.3040 ha         1 HVU       0.115000
     29 H13         95.9320   126.0330   114.2850 ha         1 HVU       0.126000
     30 H14         92.9240   125.5380   116.1830 ho         1 HVU       0.459000
     31 H15         90.3220   117.5730   118.0960 h1         1 HVU       0.028033
     32 H16         89.4220   119.1080   118.0530 h1         1 HVU       0.028033
     33 H17         89.2740   117.9480   116.7110 h1         1 HVU       0.028033
     34 H18         90.2820   120.9360   116.3340 h1         1 HVU       0.028450
     35 H19         89.8880   119.7020   115.1330 h1         1 HVU       0.028450
@<TRIPOS>BOND
     1     1     2 1   
     2     1     3 1   
     3     1    18 1   
     4     1    19 1   
     5     2    13 1   
     6     2    20 1   
     7     2    21 1   
     8     3     4 1   
     9     3     5 1   
    10     3    22 1   
    11     4    17 1   
    12     4    23 1   
    13     4    24 1   
    14     5     6 2   
    15     5     7 1   
    16     6    10 1   
    17     6    25 1   
    18     7     8 ar  
    19     7     9 ar  
    20     8    10 1   
    21     8    11 ar  
    22     9    12 ar  
    23     9    26 1   
    24    10    27 1   
    25    11    14 ar  
    26    11    28 1   
    27    12    14 ar  
    28    12    15 1   
    29    13    16 1   
    30    13    17 1   
    31    14    29 1   
    32    15    30 1   
    33    16    31 1   
    34    16    32 1   
    35    16    33 1   
    36    17    34 1   
    37    17    35 1   
@<TRIPOS>SUBSTRUCTURE
     1 HVU         1 TEMP              0 ****  ****    0 ROOT
