@<TRIPOS>MOLECULE
HVU
   35    37     1     0     0
SMALL
bcc


@<TRIPOS>ATOM
      1 CA          93.1810   120.4100   117.0280 c6         1 HVU      -0.068900
      2 CA1         92.1670   119.4450   117.6540 c6         1 HVU       0.169300
      3 CB          93.2530   120.2110   115.5130 c6         1 HVU       0.023500
      4 CB1         91.8750   120.5360   114.9080 c6         1 HVU      -0.068900
      5 CG          94.3600   120.9820   114.8660 cc         1 HVU      -0.146400
      6 CD1         95.4030   120.4370   114.1680 cd         1 HVU      -0.100100
      7 CD2         94.5680   122.4030   114.8360 ca         1 HVU      -0.051800
      8 CE2         95.7520   122.6310   114.1020 ca         1 HVU      -0.081200
      9 CE3         93.8700   123.5020   115.3600 ca         1 HVU      -0.183000
     10 NE1         96.2360   121.4150   113.7080 na         1 HVU      -0.172400
     11 CZ2         96.2440   123.9150   113.8830 ca         1 HVU      -0.112000
     12 CZ3         94.3610   124.7760   115.1450 ca         1 HVU       0.108100
     13 NZ          91.1390   119.0520   116.7030 n3         1 HVU      -0.724600
     14 CH2         95.5440   124.9810   114.4090 ca         1 HVU      -0.136000
     15 OH          93.7470   125.8880   115.6230 oh         1 HVU      -0.502100
     16 CJ          90.0310   118.4110   117.3660 c3         1 HVU       0.158100
     17 CF1         90.7400   120.1680   115.8700 c6         1 HVU       0.169300
     18 H1          94.1610   120.2580   117.4840 hc         1 HVU       0.043950
     19 H2          92.8970   121.4420   117.2450 hc         1 HVU       0.043950
     20 H3          92.6750   118.5400   118.0010 h1         1 HVU       0.028450
     21 H4          91.7270   119.9180   118.5480 h1         1 HVU       0.028450
     22 H5          93.4560   119.1500   115.3340 hc         1 HVU       0.057700
     23 H6          91.7650   119.9970   113.9640 hc         1 HVU       0.043950
     24 H7          91.8070   121.5990   114.6670 hc         1 HVU       0.043950
     25 H8          95.6100   119.3980   113.9630 h4         1 HVU       0.162000
     26 H9          92.9570   123.3600   115.9290 ha         1 HVU       0.132000
     27 H10         97.0720   121.2610   113.1710 hn         1 HVU       0.299700
     28 H11         97.1530   124.0800   113.3180 ha         1 HVU       0.133000
     29 H13         95.9020   125.9910   114.2580 ha         1 HVU       0.144000
     30 H14         92.9530   125.6430   116.1100 ho         1 HVU       0.420000
     31 H15         90.3830   117.5460   117.9310 h1         1 HVU       0.028033
     32 H16         89.5040   119.0730   118.0720 h1         1 HVU       0.028033
     33 H17         89.3040   118.0560   116.6340 h1         1 HVU       0.028033
     34 H18         90.4470   121.0440   116.4750 h1         1 HVU       0.028450
     35 H19         89.8500   119.8840   115.3040 h1         1 HVU       0.028450
@<TRIPOS>BOND
     1     1     2 1   
     2     1     3 1   
     3     1    18 1   
     4     1    19 1   
     5     2    13 1   
     6     2    20 1   
     7     2    21 1   
     8     3     4 1   
     9     3     5 1   
    10     3    22 1   
    11     4    17 1   
    12     4    23 1   
    13     4    24 1   
    14     5     6 2   
    15     5     7 1   
    16     6    10 1   
    17     6    25 1   
    18     7     8 ar  
    19     7     9 ar  
    20     8    10 1   
    21     8    11 ar  
    22     9    12 ar  
    23     9    26 1   
    24    10    27 1   
    25    11    14 ar  
    26    11    28 1   
    27    12    14 ar  
    28    12    15 1   
    29    13    16 1   
    30    13    17 1   
    31    14    29 1   
    32    15    30 1   
    33    16    31 1   
    34    16    32 1   
    35    16    33 1   
    36    17    34 1   
    37    17    35 1   
@<TRIPOS>SUBSTRUCTURE
     1 HVU         1 TEMP              0 ****  ****    0 ROOT
