@<TRIPOS>MOLECULE
HVV
   35    35     1     0     0
SMALL
bcc


@<TRIPOS>ATOM
      1 CAP          6.7950     1.4390     0.3820 c3         1 HVV      -0.056900
      2 CAO          6.0130     0.1980     0.1020 c2         1 HVV      -0.165200
      3 CAN          4.8190     0.1610    -0.4840 c2         1 HVV      -0.171200
      4 CAM          4.0370    -1.0910    -0.7540 c3         1 HVV      -0.007000
      5 CAL          2.7340    -1.1020    -0.0090 c2         1 HVV      -0.155200
      6 CAK          1.5350    -1.1200    -0.5840 c2         1 HVV      -0.177200
      7 CAJ          0.2310    -1.1070     0.1510 c3         1 HVV      -0.044200
      8 CAI         -0.5790     0.1470    -0.1960 c3         1 HVV      -0.093400
      9 CAH         -1.9700     0.1850     0.4300 c5         1 HVV       0.323200
     10 OAC         -1.9120     0.0870     1.8340 oh         1 HVV      -0.609800
     11 NAD         -2.8460    -0.8150    -0.1390 ns         1 HVV      -0.607900
     12 CAE         -4.1430    -0.4460    -0.2120 c          1 HVV       0.719500
     13 OAB         -5.0660    -1.1470    -0.5800 o          1 HVV      -0.618500
     14 CAF         -4.2160     0.9910     0.2580 c5         1 HVV      -0.210400
     15 CAG         -2.7720     1.4760     0.1540 c5         1 HVV       0.152100
     16 OAA         -2.4700     1.9140    -1.1450 oh         1 HVV      -0.590800
     17 H1           6.9910     1.5470     1.4510 hc         1 HVV       0.039700
     18 H2           7.7710     1.4090    -0.1080 hc         1 HVV       0.039700
     19 H3           6.2720     2.3330     0.0420 hc         1 HVV       0.039700
     20 H4           6.4720    -0.7400     0.4060 ha         1 HVV       0.114000
     21 H5           4.3480     1.0930    -0.7880 ha         1 HVV       0.119000
     22 H6           3.8380    -1.1830    -1.8270 hc         1 HVV       0.050200
     23 H7           4.6360    -1.9600    -0.4660 hc         1 HVV       0.050200
     24 H8           2.8030    -1.0780     1.0760 ha         1 HVV       0.119000
     25 H10          1.4710    -1.1340    -1.6700 ha         1 HVV       0.121000
     26 H12         -0.3310    -2.0070    -0.1230 hc         1 HVV       0.041200
     27 H13          0.4230    -1.1650     1.2250 hc         1 HVV       0.041200
     28 H14         -0.0250     1.0280     0.1400 hc         1 HVV       0.073200
     29 H15         -0.6720     0.2250    -1.2800 hc         1 HVV       0.073200
     30 H16         -1.5930    -0.7880     2.0810 ho         1 HVV       0.417000
     31 H17         -2.5510    -1.7580    -0.3480 hn         1 HVV       0.325500
     32 H18         -4.9200     1.5780    -0.3320 hc         1 HVV       0.084200
     33 H19         -4.5680     1.0020     1.2930 hc         1 HVV       0.084200
     34 H20         -2.5280     2.2360     0.9040 h1         1 HVV       0.066700
     35 H21         -3.0280     2.6730    -1.3440 ho         1 HVV       0.414000
@<TRIPOS>BOND
     1     1     2 1   
     2     1    17 1   
     3     1    18 1   
     4     1    19 1   
     5     2     3 2   
     6     2    20 1   
     7     3     4 1   
     8     3    21 1   
     9     4     5 1   
    10     4    22 1   
    11     4    23 1   
    12     5     6 2   
    13     5    24 1   
    14     6     7 1   
    15     6    25 1   
    16     7     8 1   
    17     7    26 1   
    18     7    27 1   
    19     8     9 1   
    20     8    28 1   
    21     8    29 1   
    22     9    10 1   
    23     9    11 1   
    24     9    15 1   
    25    10    30 1   
    26    11    12 1   
    27    11    31 1   
    28    12    13 2   
    29    12    14 1   
    30    14    15 1   
    31    14    32 1   
    32    14    33 1   
    33    15    16 1   
    34    15    34 1   
    35    16    35 1   
@<TRIPOS>SUBSTRUCTURE
     1 HVV         1 TEMP              0 ****  ****    0 ROOT
