@<TRIPOS>MOLECULE
HVV
   35    35     1     0     0
SMALL
No Charge or Current Charge


@<TRIPOS>ATOM
      1 CAP          7.0210     1.3480     0.4270 c3         1 HVV      -0.056900
      2 CAO          6.1840     0.1450     0.0470 c2         1 HVV      -0.215200
      3 CAN          4.9090     0.1910    -0.3680 c2         1 HVV      -0.221200
      4 CAM          4.0700    -1.0090    -0.7530 c3         1 HVV      -0.007000
      5 CAL          2.7460    -0.9950    -0.0190 c2         1 HVV      -0.205200
      6 CAK          1.5390    -1.1130    -0.5940 c2         1 HVV      -0.227200
      7 CAJ          0.2160    -1.1070     0.1450 c3         1 HVV      -0.044200
      8 CAI         -0.6320     0.1440    -0.1980 c3         1 HVV      -0.093400
      9 CAH         -2.0330     0.2300     0.4690 c5         1 HVV       0.346400
     10 OAC         -1.8570     0.1910     1.8730 oh         1 HVV      -0.672000
     11 NAD         -2.9090    -0.8690     0.1210 ns         1 HVV      -0.540900
     12 CAE         -4.1910    -0.4830    -0.1510 c          1 HVV       0.577000
     13 OAB         -4.9470    -1.1310    -0.8560 o          1 HVV      -0.543000
     14 CAF         -4.3180     0.9540     0.3240 c5         1 HVV      -0.210400
     15 CAG         -2.9060     1.4930     0.0300 c5         1 HVV       0.175300
     16 OAA         -2.8070     1.8320    -1.3620 oh         1 HVV      -0.653000
     17 H1           7.3600     1.2760     1.4670 hc         1 HVV       0.039700
     18 H2           7.9110     1.4230    -0.2100 hc         1 HVV       0.039700
     19 H3           6.4580     2.2830     0.3230 hc         1 HVV       0.039700
     20 H4           6.7060    -0.8100     0.1350 ha         1 HVV       0.164000
     21 H5           4.3890     1.1470    -0.4590 ha         1 HVV       0.169000
     22 H6           3.9040    -1.0090    -1.8380 hc         1 HVV       0.050200
     23 H7           4.6060    -1.9390    -0.5260 hc         1 HVV       0.050200
     24 H8           2.8370    -0.8830     1.0630 ha         1 HVV       0.169000
     25 H10          1.4500    -1.2310    -1.6760 ha         1 HVV       0.171000
     26 H12         -0.3460    -2.0140    -0.1090 hc         1 HVV       0.041200
     27 H13          0.3930    -1.1430     1.2270 hc         1 HVV       0.041200
     28 H14         -0.0550     1.0380     0.0660 hc         1 HVV       0.073200
     29 H15         -0.7520     0.1760    -1.2870 hc         1 HVV       0.073200
     30 H16         -1.7520    -0.7570     2.0930 ho         1 HVV       0.456000
     31 H17         -2.5950    -1.7480    -0.2670 hn         1 HVV       0.325500
     32 H18         -5.1460     1.4790    -0.1610 hc         1 HVV       0.084200
     33 H19         -4.4580     0.9470     1.4110 hc         1 HVV       0.084200
     34 H20         -2.6670     2.3700     0.6490 h1         1 HVV       0.066700
     35 H21         -3.3280     2.6550    -1.4940 ho         1 HVV       0.453000
@<TRIPOS>BOND
     1     1     2 1   
     2     1    17 1   
     3     1    18 1   
     4     1    19 1   
     5     2     3 2   
     6     2    20 1   
     7     3     4 1   
     8     3    21 1   
     9     4     5 1   
    10     4    22 1   
    11     4    23 1   
    12     5     6 2   
    13     5    24 1   
    14     6     7 1   
    15     6    25 1   
    16     7     8 1   
    17     7    26 1   
    18     7    27 1   
    19     8     9 1   
    20     8    28 1   
    21     8    29 1   
    22     9    10 1   
    23     9    11 1   
    24     9    15 1   
    25    10    30 1   
    26    11    12 1   
    27    11    31 1   
    28    12    13 2   
    29    12    14 1   
    30    14    15 1   
    31    14    32 1   
    32    14    33 1   
    33    15    16 1   
    34    15    34 1   
    35    16    35 1   
@<TRIPOS>SUBSTRUCTURE
     1 HVV         1 TEMP              0 ****  ****    0 ROOT
