@<TRIPOS>MOLECULE
HVW
   62    63     1     0     0
SMALL
No Charge or Current Charge


@<TRIPOS>ATOM
      1 C1           4.4920     3.2710     2.7630 c2         1 HVW      -0.304000
      2 C2           4.9120     3.8130     1.6060 c2         1 HVW      -0.247200
      3 C3           6.0440     3.2900     0.7490 c3         1 HVW       0.130200
      4 C7           4.6400     0.1040    -0.9770 c3         1 HVW       0.104500
      5 C8           5.1040    -0.4110    -2.3660 c3         1 HVW      -0.066400
      6 C9           4.9730    -1.9450    -2.5980 c3         1 HVW      -0.056700
      7 C10          5.3500    -2.3160    -4.0510 c3         1 HVW      -0.089600
      8 C11          5.7970    -2.7810    -1.5880 c3         1 HVW      -0.089600
      9 C13          2.5850     0.1280     0.5490 c3         1 HVW       0.172800
     10 C14          3.1080    -0.7550     1.7410 c3         1 HVW       0.299000
     11 C19          0.4290    -1.1200    -0.0410 ca         1 HVW      -0.081500
     12 C20         -0.9700    -1.1760    -0.1600 ca         1 HVW      -0.093000
     13 C21         -1.7800    -0.0590     0.1630 cp         1 HVW      -0.037000
     14 C22          0.2700     1.1760     0.7310 ca         1 HVW      -0.081500
     15 C24         -3.2720    -0.1190     0.0350 cp         1 HVW       0.023000
     16 C27         -6.1070    -0.2350    -0.2080 ca         1 HVW      -0.268500
     17 C33         -8.4600     0.1670     1.2870 c3         1 HVW      -0.336100
     18 N4           5.7330     1.9350     0.3060 ns         1 HVW      -0.499900
     19 C5           4.9720     1.6270    -0.8030 c          1 HVW       0.552100
     20 O6           4.5680     2.4910    -1.5740 o          1 HVW      -0.602100
     21 N12          3.1860    -0.2020    -0.7800 n7         1 HVW      -0.856400
     22 F16          4.3790    -0.4330     2.0760 f          1 HVW      -0.114667
     23 F17          2.3470    -0.5700     2.8460 f          1 HVW      -0.114667
     24 C18          1.0620     0.0570     0.4080 ca         1 HVW      -0.102300
     25 C23         -1.1290     1.1180     0.6100 ca         1 HVW      -0.093000
     26 C25         -3.9830    -1.3120     0.3150 ca         1 HVW      -0.120500
     27 C26         -5.3820    -1.3740     0.1980 ca         1 HVW      -0.016000
     28 C28         -4.0200     1.0150    -0.3680 ca         1 HVW      -0.120500
     29 C29         -5.4190     0.9620    -0.4890 ca         1 HVW      -0.016000
     30 S30         -7.9050    -0.3060    -0.3500 sy         1 HVW       1.058500
     31 O31         -8.3520     0.7530    -1.2660 o          1 HVW      -0.523500
     32 O32         -8.3130    -1.7040    -0.5440 o          1 HVW      -0.523500
     33 H58          3.6640     3.7030     3.3290 ha         1 HVW       0.164000
     34 H57          4.9590     2.3790     3.1840 ha         1 HVW       0.164000
     35 H1           4.4270     4.7060     1.2040 ha         1 HVW       0.180000
     36 H55          6.1990     3.9390    -0.1240 h1         1 HVW       0.063200
     37 H56          6.9770     3.2710     1.3280 h1         1 HVW       0.063200
     38 H44          5.2390    -0.4260    -0.2280 h1         1 HVW       0.072700
     39 H46          4.5350     0.1160    -3.1420 hc         1 HVW       0.049700
     40 H45          6.1540    -0.1240    -2.5090 hc         1 HVW       0.049700
     41 H47          3.9190    -2.2190    -2.4650 hc         1 HVW       0.063700
     42 H49          6.4010    -2.0760    -4.2550 hc         1 HVW       0.034033
     43 H50          5.2020    -3.3880    -4.2290 hc         1 HVW       0.034033
     44 H48          4.7260    -1.7670    -4.7660 hc         1 HVW       0.034033
     45 H52          6.8570    -2.5000    -1.6200 hc         1 HVW       0.034033
     46 H53          5.4310    -2.6400    -0.5650 hc         1 HVW       0.034033
     47 H51          5.7200    -3.8500    -1.8190 hc         1 HVW       0.034033
     48 H42          2.8340     1.1670     0.8060 h1         1 HVW       0.072700
     49 H40          1.0230    -1.9920    -0.3050 ha         1 HVW       0.122500
     50 H41         -1.4280    -2.0920    -0.5230 ha         1 HVW       0.119000
     51 H39          0.7370     2.0940     1.0820 ha         1 HVW       0.122500
     52 H59         -8.0840     1.1730     1.4970 h1         1 HVW       0.102700
     53 H61         -9.5550     0.1510     1.2940 h1         1 HVW       0.102700
     54 H60         -8.0570    -0.5550     2.0050 h1         1 HVW       0.102700
     55 H54          6.0150     1.1640     0.8990 hn         1 HVW       0.315500
     56 H43          2.6610     0.3270    -1.4880 hn         1 HVW       0.453000
     57 H38         -1.7140     1.9930     0.8810 ha         1 HVW       0.119000
     58 H37         -3.4470    -2.1990     0.6420 ha         1 HVW       0.123000
     59 H34         -5.8960    -2.3070     0.4280 ha         1 HVW       0.137500
     60 H36         -3.5100     1.9450    -0.6040 ha         1 HVW       0.123000
     61 H35         -5.9610     1.8530    -0.8020 ha         1 HVW       0.137500
     62 F15          3.0820    -2.0760     1.4420 f          1 HVW      -0.114667
@<TRIPOS>BOND
     1     1     2 2   
     2     1    33 1   
     3     1    34 1   
     4     2     3 1   
     5     2    35 1   
     6     3    18 1   
     7     3    36 1   
     8     3    37 1   
     9     4     5 1   
    10     4    19 1   
    11     4    21 1   
    12     4    38 1   
    13     5     6 1   
    14     5    39 1   
    15     5    40 1   
    16     6     7 1   
    17     6     8 1   
    18     6    41 1   
    19     7    42 1   
    20     7    43 1   
    21     7    44 1   
    22     8    45 1   
    23     8    46 1   
    24     8    47 1   
    25     9    10 1   
    26     9    21 1   
    27     9    24 1   
    28     9    48 1   
    29    10    22 1   
    30    10    23 1   
    31    10    62 1   
    32    11    12 ar  
    33    11    24 ar  
    34    11    49 1   
    35    12    13 ar  
    36    12    50 1   
    37    13    15 1   
    38    13    25 ar  
    39    14    24 ar  
    40    14    25 ar  
    41    14    51 1   
    42    15    26 ar  
    43    15    28 ar  
    44    16    27 ar  
    45    16    29 ar  
    46    16    30 1   
    47    17    30 1   
    48    17    52 1   
    49    17    53 1   
    50    17    54 1   
    51    18    19 1   
    52    18    55 1   
    53    19    20 2   
    54    21    56 1   
    55    25    57 1   
    56    26    27 ar  
    57    26    58 1   
    58    27    59 1   
    59    28    29 ar  
    60    28    60 1   
    61    29    61 1   
    62    30    31 2   
    63    30    32 2   
@<TRIPOS>SUBSTRUCTURE
     1 HVW         1 TEMP              0 ****  ****    0 ROOT
