@<TRIPOS>MOLECULE
HVW
   62    63     1     0     0
SMALL
bcc


@<TRIPOS>ATOM
      1 C1           4.8590     4.7520     2.0660 c2         1 HVW      -0.204000
      2 C2           4.2550     3.9530     1.1960 c2         1 HVW      -0.197200
      3 C3           4.8560     3.5220    -0.1090 c3         1 HVW       0.130200
      4 C7           4.3720    -0.2100    -0.7290 c3         1 HVW       0.104500
      5 C8           5.0690    -0.4980    -2.0620 c3         1 HVW      -0.066400
      6 C9           5.5310    -1.9430    -2.2570 c3         1 HVW      -0.056700
      7 C10          6.1550    -2.0900    -3.6420 c3         1 HVW      -0.089600
      8 C11          6.5110    -2.3820    -1.1750 c3         1 HVW      -0.089600
      9 C13          2.5030    -0.9240     0.6790 c3         1 HVW       0.172800
     10 C14          2.7460    -2.1860     1.4990 c3         1 HVW       0.662900
     11 C19          0.2750    -1.3920    -0.4290 ca         1 HVW      -0.099500
     12 C20         -1.0830    -1.1620    -0.5700 ca         1 HVW      -0.111000
     13 C21         -1.7440    -0.2420     0.2440 cp         1 HVW      -0.037000
     14 C22          0.3630     0.2190     1.3360 ca         1 HVW      -0.099500
     15 C24         -3.1920    -0.0010     0.0950 cp         1 HVW       0.023000
     16 C27         -5.9220     0.4510    -0.1760 ca         1 HVW      -0.268500
     17 C33         -8.3100     0.3360     1.2700 c3         1 HVW      -0.225300
     18 N4           4.9810     2.0820    -0.2030 ns         1 HVW      -0.566900
     19 C5           4.0170     1.2820    -0.6840 c          1 HVW       0.619100
     20 O6           2.9450     1.6940    -1.1020 o          1 HVW      -0.602100
     21 N12          3.2070    -1.0490    -0.5810 n7         1 HVW      -0.801200
     22 F16          4.0520    -2.3850     1.7280 f          1 HVW      -0.235967
     23 F17          2.1490    -2.1150     2.6980 f          1 HVW      -0.235967
     24 C18          1.0180    -0.6960     0.5200 ca         1 HVW      -0.102300
     25 C23         -0.9970     0.4450     1.2020 ca         1 HVW      -0.111000
     26 C25         -4.0530    -1.0360    -0.2730 ca         1 HVW      -0.138500
     27 C26         -5.4120    -0.8180    -0.4140 ca         1 HVW      -0.034000
     28 C28         -3.7310     1.2680     0.3200 ca         1 HVW      -0.138500
     29 C29         -5.0900     1.4990     0.1880 ca         1 HVW      -0.034000
     30 S30         -7.6650     0.7320    -0.3390 sy         1 HVW       1.089300
     31 O31         -7.8810     2.1560    -0.5820 o          1 HVW      -0.594300
     32 O32         -8.1960    -0.2340    -1.3000 o          1 HVW      -0.594300
     33 H58          4.3840     5.0420     2.9940 ha         1 HVW       0.114000
     34 H57          5.8500     5.1490     1.8810 ha         1 HVW       0.114000
     35 H1           3.2620     3.5700     1.4110 ha         1 HVW       0.130000
     36 H55          4.2410     3.8690    -0.9410 h1         1 HVW       0.063200
     37 H56          5.8460     3.9600    -0.2360 h1         1 HVW       0.063200
     38 H44          5.0670    -0.4280     0.0870 h1         1 HVW       0.072700
     39 H46          4.3900    -0.2240    -2.8760 hc         1 HVW       0.049700
     40 H45          5.9350     0.1650    -2.1480 hc         1 HVW       0.049700
     41 H47          4.6530    -2.5920    -2.2060 hc         1 HVW       0.063700
     42 H49          7.0360    -1.4510    -3.7440 hc         1 HVW       0.034033
     43 H50          6.4690    -3.1190    -3.8260 hc         1 HVW       0.034033
     44 H48          5.4520    -1.8110    -4.4290 hc         1 HVW       0.034033
     45 H52          7.3660    -1.7030    -1.1180 hc         1 HVW       0.034033
     46 H53          6.0450    -2.4180    -0.1910 hc         1 HVW       0.034033
     47 H51          6.8990    -3.3810    -1.3850 hc         1 HVW       0.034033
     48 H42          2.9030    -0.0980     1.2810 h1         1 HVW       0.072700
     49 H40          0.7480    -2.1130    -1.0840 ha         1 HVW       0.140500
     50 H41         -1.6260    -1.6960    -1.3390 ha         1 HVW       0.137000
     51 H39          0.9160     0.7670     2.0880 ha         1 HVW       0.140500
     52 H59         -7.8530     0.9880     2.0110 h1         1 HVW       0.102700
     53 H61         -9.3870     0.5010     1.2400 h1         1 HVW       0.102700
     54 H60         -8.0980    -0.7060     1.4990 h1         1 HVW       0.102700
     55 H54          5.7970     1.6620     0.2130 hn         1 HVW       0.315500
     56 H43          2.5770    -0.8860    -1.3560 hn         1 HVW       0.397800
     57 H38         -1.4800     1.1510     1.8640 ha         1 HVW       0.137000
     58 H37         -3.6660    -2.0340    -0.4400 ha         1 HVW       0.141000
     59 H34         -6.0580    -1.6370    -0.7000 ha         1 HVW       0.155500
     60 H36         -3.0850     2.0960     0.5790 ha         1 HVW       0.141000
     61 H35         -5.4840     2.4920     0.3610 ha         1 HVW       0.155500
     62 F15          2.2850    -3.2850     0.8950 f          1 HVW      -0.235967
@<TRIPOS>BOND
     1     1     2 2   
     2     1    33 1   
     3     1    34 1   
     4     2     3 1   
     5     2    35 1   
     6     3    18 1   
     7     3    36 1   
     8     3    37 1   
     9     4     5 1   
    10     4    19 1   
    11     4    21 1   
    12     4    38 1   
    13     5     6 1   
    14     5    39 1   
    15     5    40 1   
    16     6     7 1   
    17     6     8 1   
    18     6    41 1   
    19     7    42 1   
    20     7    43 1   
    21     7    44 1   
    22     8    45 1   
    23     8    46 1   
    24     8    47 1   
    25     9    10 1   
    26     9    21 1   
    27     9    24 1   
    28     9    48 1   
    29    10    22 1   
    30    10    23 1   
    31    10    62 1   
    32    11    12 ar  
    33    11    24 ar  
    34    11    49 1   
    35    12    13 ar  
    36    12    50 1   
    37    13    15 1   
    38    13    25 ar  
    39    14    24 ar  
    40    14    25 ar  
    41    14    51 1   
    42    15    26 ar  
    43    15    28 ar  
    44    16    27 ar  
    45    16    29 ar  
    46    16    30 1   
    47    17    30 1   
    48    17    52 1   
    49    17    53 1   
    50    17    54 1   
    51    18    19 1   
    52    18    55 1   
    53    19    20 2   
    54    21    56 1   
    55    25    57 1   
    56    26    27 ar  
    57    26    58 1   
    58    27    59 1   
    59    28    29 ar  
    60    28    60 1   
    61    29    61 1   
    62    30    31 2   
    63    30    32 2   
@<TRIPOS>SUBSTRUCTURE
     1 HVW         1 TEMP              0 ****  ****    0 ROOT
