@<TRIPOS>MOLECULE
HVX
   70    74     1     0     0
SMALL
No Charge or Current Charge


@<TRIPOS>ATOM
      1 C1          14.6730     4.1330    -1.8710 c          1 HVX       0.717000
      2 C10         10.6750     1.0980    -5.5060 ca         1 HVX      -0.207000
      3 C11         11.5640     1.3340    -4.4440 ca         1 HVX      -0.073000
      4 C12          8.6450     0.6660    -7.5960 c3         1 HVX       0.166600
      5 C13          7.7070    -0.0610    -6.6010 c3         1 HVX      -0.111400
      6 C14          7.2000    -1.4330    -7.1040 c3         1 HVX      -0.073400
      7 C15          9.1040     4.5800    -5.9380 c3         1 HVX       0.162300
      8 C16          8.3090    -2.4910    -7.2730 c3         1 HVX      -0.091100
      9 C17         10.1790     8.1470    -9.3250 ca         1 HVX       0.007000
     10 C19         10.8960     8.4750   -10.5080 ca         1 HVX      -0.024000
     11 C2          13.8430     3.7530    -3.1220 c3         1 HVX      -0.187700
     12 C22         10.6480     5.7820    -9.7450 ca         1 HVX      -0.086000
     13 C3          14.7180     3.0910    -4.2250 c3         1 HVX      -0.048400
     14 C4          15.8940     3.9670    -4.7040 c3         1 HVX      -0.077100
     15 C5          12.6300     2.8720    -2.7180 c3         1 HVX      -0.020100
     16 C6          11.6580     2.6120    -3.8660 ca         1 HVX      -0.077300
     17 C7          10.8500     3.6530    -4.3600 ca         1 HVX      -0.067000
     18 C8           9.9540     3.4270    -5.4230 ca         1 HVX      -0.165300
     19 C85         10.6320    12.2010   -10.5320 ca         1 HVX      -0.098000
     20 C86         11.3310    12.5130   -11.7100 ca         1 HVX      -0.111000
     21 C87         10.0410     6.7780    -8.9420 ca         1 HVX      -0.124600
     22 C88         11.8900    11.4870   -12.4890 ca         1 HVX      -0.101000
     23 C89         11.7510    10.1430   -12.0920 ca         1 HVX      -0.033000
     24 C9           9.8600     2.1420    -6.0000 ca         1 HVX       0.128100
     25 C91         12.3170     9.1180   -12.8690 ca         1 HVX      -0.098000
     26 C92         12.1830     7.7800   -12.4700 ca         1 HVX      -0.094000
     27 C93          9.6530     9.2080    -8.5480 ca         1 HVX      -0.077000
     28 C94          9.8000    10.5450    -8.9510 ca         1 HVX      -0.109000
     29 C95         10.4880    10.8590   -10.1320 ca         1 HVX      -0.027000
     30 C96         11.0430     9.8240   -10.9110 ca         1 HVX      -0.015000
     31 C97          9.2480     6.3310    -7.7280 c          1 HVX       0.618700
     32 C98         11.4780     7.4570   -11.2950 ca         1 HVX      -0.027000
     33 C99         11.3560     6.1170   -10.9060 ca         1 HVX      -0.101000
     34 N99          9.7460     5.2280    -7.0750 ns         1 HVX      -0.488900
     35 O1          15.2120     3.2420    -1.2300 o          1 HVX      -0.733000
     36 O2          14.7390     5.3140    -1.5620 o          1 HVX      -0.733000
     37 O3           8.9840     1.9580    -7.0560 os         1 HVX      -0.350100
     38 O99          8.1920     6.8430    -7.3810 o          1 HVX      -0.606100
     39 H1          10.6390     0.1020    -5.9330 ha         1 HVX       0.106000
     40 H2          12.1860     0.5210    -4.0760 ha         1 HVX       0.114000
     41 H3           9.5430     0.0720    -7.8060 h1         1 HVX       0.047200
     42 H4           8.1100     0.7950    -8.5450 h1         1 HVX       0.047200
     43 H5           8.2130    -0.2000    -5.6390 hc         1 HVX       0.055200
     44 H6           6.8400     0.5820    -6.4090 hc         1 HVX       0.055200
     45 H7           6.4590    -1.8150    -6.3900 hc         1 HVX       0.036200
     46 H8           6.6760    -1.3020    -8.0590 hc         1 HVX       0.036200
     47 H9           8.9580     5.3220    -5.1410 h1         1 HVX       0.060700
     48 H10          8.1130     4.2170    -6.2420 h1         1 HVX       0.060700
     49 H11          7.8730    -3.4560    -7.5590 hc         1 HVX       0.031033
     50 H12          9.0210    -2.1980    -8.0530 hc         1 HVX       0.031033
     51 H13          8.8600    -2.6300    -6.3340 hc         1 HVX       0.031033
     52 H14         13.4430     4.6840    -3.5430 hc         1 HVX       0.030700
     53 H16         14.0920     2.8590    -5.0950 hc         1 HVX       0.017700
     54 H17         15.1110     2.1350    -3.8580 hc         1 HVX       0.017700
     55 H18         16.4360     3.4640    -5.5130 hc         1 HVX       0.021367
     56 H19         15.5300     4.9290    -5.0840 hc         1 HVX       0.021367
     57 H20         16.6010     4.1580    -3.8900 hc         1 HVX       0.021367
     58 H21         12.0930     3.3670    -1.9000 hc         1 HVX       0.052700
     59 H22         12.9940     1.9230    -2.3040 hc         1 HVX       0.052700
     60 H23         10.9240     4.6440    -3.9170 ha         1 HVX       0.122000
     61 H25         11.4410    13.5510   -12.0180 ha         1 HVX       0.109000
     62 H26         12.4330    11.7370   -13.3980 ha         1 HVX       0.109000
     63 H27         12.8630     9.3560   -13.7790 ha         1 HVX       0.110000
     64 H28         12.6280     6.9940   -13.0750 ha         1 HVX       0.113000
     65 H29          9.1340     9.0270    -7.6130 ha         1 HVX       0.138000
     66 H30          9.3810    11.3390    -8.3360 ha         1 HVX       0.113000
     67 H31         11.8000     5.3280   -11.5090 ha         1 HVX       0.117000
     68 H32         10.6200     4.8470    -7.4120 hn         1 HVX       0.317500
     69 H15         10.5460     4.7280    -9.4940 ha         1 HVX       0.130000
     70 H24         10.2050    13.0010    -9.9320 ha         1 HVX       0.111000
@<TRIPOS>BOND
     1     1    11 1   
     2     1    35 1   
     3     1    36 1   
     4     2     3 ar  
     5     2    24 ar  
     6     2    39 1   
     7     3    16 ar  
     8     3    40 1   
     9     4     5 1   
    10     4    37 1   
    11     4    41 1   
    12     4    42 1   
    13     5     6 1   
    14     5    43 1   
    15     5    44 1   
    16     6     8 1   
    17     6    45 1   
    18     6    46 1   
    19     7    18 1   
    20     7    34 1   
    21     7    47 1   
    22     7    48 1   
    23     8    49 1   
    24     8    50 1   
    25     8    51 1   
    26     9    10 ar  
    27     9    21 ar  
    28     9    27 ar  
    29    10    30 ar  
    30    10    32 ar  
    31    11    13 1   
    32    11    15 1   
    33    11    52 1   
    34    12    21 ar  
    35    12    33 ar  
    36    12    69 1   
    37    13    14 1   
    38    13    53 1   
    39    13    54 1   
    40    14    55 1   
    41    14    56 1   
    42    14    57 1   
    43    15    16 1   
    44    15    58 1   
    45    15    59 1   
    46    16    17 ar  
    47    17    18 ar  
    48    17    60 1   
    49    18    24 ar  
    50    19    20 ar  
    51    19    29 ar  
    52    19    70 1   
    53    20    22 ar  
    54    20    61 1   
    55    21    31 1   
    56    22    23 ar  
    57    22    62 1   
    58    23    25 ar  
    59    23    30 ar  
    60    24    37 1   
    61    25    26 ar  
    62    25    63 1   
    63    26    32 ar  
    64    26    64 1   
    65    27    28 ar  
    66    27    65 1   
    67    28    29 ar  
    68    28    66 1   
    69    29    30 ar  
    70    31    34 1   
    71    31    38 2   
    72    32    33 ar  
    73    33    67 1   
    74    34    68 1   
@<TRIPOS>SUBSTRUCTURE
     1 HVX         1 TEMP              0 ****  ****    0 ROOT
