@<TRIPOS>MOLECULE
HVX
   70    74     1     0     0
SMALL
abcg2


@<TRIPOS>ATOM
      1 C1          14.9930     2.9430    -1.3040 c          1 HVX       0.717000
      2 C10         10.7220     1.6380    -5.5080 ca         1 HVX      -0.207000
      3 C11         11.5870     1.4720    -4.4310 ca         1 HVX      -0.073000
      4 C12          8.8980     2.1300    -7.6670 c3         1 HVX       0.166600
      5 C13          7.8230     1.1930    -7.1390 c3         1 HVX      -0.111400
      6 C14          7.3540     0.1980    -8.1980 c3         1 HVX      -0.073400
      7 C15          9.7200     5.2730    -5.0630 c3         1 HVX       0.162300
      8 C16          8.4090    -0.8250    -8.6020 c3         1 HVX      -0.091100
      9 C17          9.9280     7.7640    -9.2920 ca         1 HVX       0.007000
     10 C19         10.6540     8.0050   -10.4880 ca         1 HVX      -0.024000
     11 C2          14.1750     3.0190    -2.6120 c3         1 HVX      -0.187700
     12 C22         11.1580     5.6960    -9.0180 ca         1 HVX      -0.086000
     13 C3          14.9300     2.3960    -3.7840 c3         1 HVX      -0.048400
     14 C4          16.2730     3.0580    -4.0620 c3         1 HVX      -0.077100
     15 C5          12.8120     2.3380    -2.3960 c3         1 HVX      -0.020100
     16 C6          11.8610     2.5060    -3.5490 ca         1 HVX      -0.077300
     17 C7          11.2330     3.7290    -3.7840 ca         1 HVX      -0.067000
     18 C8          10.3640     3.9300    -4.8440 ca         1 HVX      -0.165300
     19 C85          9.2510    11.2900   -11.5570 ca         1 HVX      -0.098000
     20 C86          9.9610    11.5130   -12.7260 ca         1 HVX      -0.111000
     21 C87         10.2000     6.5960    -8.5590 ca         1 HVX      -0.124600
     22 C88         10.8960    10.5890   -13.1660 ca         1 HVX      -0.101000
     23 C89         11.1410     9.4230   -12.4410 ca         1 HVX      -0.033000
     24 C9          10.1050     2.8650    -5.7220 ca         1 HVX       0.128100
     25 C91         12.1030     8.4540   -12.8730 ca         1 HVX      -0.098000
     26 C92         12.3320     7.3320   -12.1550 ca         1 HVX      -0.094000
     27 C93          8.9730     8.7510    -8.8720 ca         1 HVX      -0.077000
     28 C94          8.7580     9.8750    -9.5920 ca         1 HVX      -0.109000
     29 C95          9.4670    10.1350   -10.8050 ca         1 HVX      -0.027000
     30 C96         10.4200     9.1870   -11.2450 ca         1 HVX      -0.015000
     31 C97          9.4330     6.2390    -7.3210 c          1 HVX       0.618700
     32 C98         11.6190     7.0710   -10.9410 ca         1 HVX      -0.027000
     33 C99         11.8530     5.9210   -10.1910 ca         1 HVX      -0.101000
     34 N99         10.2060     5.9010    -6.2740 ns         1 HVX      -0.488900
     35 O1          15.3580     1.8010    -0.9500 o          1 HVX      -0.733000
     36 O2          15.2110     4.0110    -0.6970 o          1 HVX      -0.733000
     37 O3           9.2600     3.1380    -6.7350 os         1 HVX      -0.350100
     38 O99          8.2110     6.2440    -7.2950 o          1 HVX      -0.606100
     39 H1          10.5390     0.7960    -6.1620 ha         1 HVX       0.106000
     40 H2          12.0530     0.5040    -4.2850 ha         1 HVX       0.114000
     41 H3           9.7840     1.5840    -8.0050 h1         1 HVX       0.047200
     42 H4           8.5120     2.6730    -8.5320 h1         1 HVX       0.047200
     43 H5           8.1840     0.6460    -6.2630 hc         1 HVX       0.055200
     44 H6           6.9750     1.7960    -6.8050 hc         1 HVX       0.055200
     45 H7           6.4780    -0.3280    -7.8120 hc         1 HVX       0.036200
     46 H8           7.0110     0.7440    -9.0830 hc         1 HVX       0.036200
     47 H9           9.9290     5.9180    -4.2060 h1         1 HVX       0.060700
     48 H10          8.6370     5.1890    -5.1390 h1         1 HVX       0.060700
     49 H11          8.0030    -1.5440    -9.3140 hc         1 HVX       0.031033
     50 H12          9.2770    -0.3600    -9.0720 hc         1 HVX       0.031033
     51 H13          8.7640    -1.3830    -7.7340 hc         1 HVX       0.031033
     52 H14         13.9910     4.0750    -2.8450 hc         1 HVX       0.030700
     53 H16         14.3130     2.4540    -4.6850 hc         1 HVX       0.017700
     54 H17         15.0790     1.3300    -3.5870 hc         1 HVX       0.017700
     55 H18         16.7510     2.6280    -4.9440 hc         1 HVX       0.021367
     56 H19         16.1570     4.1280    -4.2430 hc         1 HVX       0.021367
     57 H20         16.9650     2.9370    -3.2280 hc         1 HVX       0.021367
     58 H21         12.3510     2.7510    -1.4920 hc         1 HVX       0.052700
     59 H22         12.9720     1.2740    -2.2040 hc         1 HVX       0.052700
     60 H23         11.4270     4.5590    -3.1110 ha         1 HVX       0.122000
     61 H25          9.7840    12.4140   -13.3000 ha         1 HVX       0.109000
     62 H26         11.4470    10.7690   -14.0820 ha         1 HVX       0.109000
     63 H27         12.6490     8.6400   -13.7900 ha         1 HVX       0.110000
     64 H28         13.0630     6.6060   -12.4880 ha         1 HVX       0.113000
     65 H29          8.4130     8.5960    -7.9610 ha         1 HVX       0.138000
     66 H30          8.0340    10.6050    -9.2500 ha         1 HVX       0.113000
     67 H31         12.5830     5.1980   -10.5340 ha         1 HVX       0.117000
     68 H32         11.2060     5.9750    -6.3740 hn         1 HVX       0.317500
     69 H15         11.3520     4.7870    -8.4610 ha         1 HVX       0.130000
     70 H24          8.5220    12.0160   -11.2170 ha         1 HVX       0.111000
@<TRIPOS>BOND
     1     1    11 1   
     2     1    35 1   
     3     1    36 1   
     4     2     3 ar  
     5     2    24 ar  
     6     2    39 1   
     7     3    16 ar  
     8     3    40 1   
     9     4     5 1   
    10     4    37 1   
    11     4    41 1   
    12     4    42 1   
    13     5     6 1   
    14     5    43 1   
    15     5    44 1   
    16     6     8 1   
    17     6    45 1   
    18     6    46 1   
    19     7    18 1   
    20     7    34 1   
    21     7    47 1   
    22     7    48 1   
    23     8    49 1   
    24     8    50 1   
    25     8    51 1   
    26     9    10 ar  
    27     9    21 ar  
    28     9    27 ar  
    29    10    30 ar  
    30    10    32 ar  
    31    11    13 1   
    32    11    15 1   
    33    11    52 1   
    34    12    21 ar  
    35    12    33 ar  
    36    12    69 1   
    37    13    14 1   
    38    13    53 1   
    39    13    54 1   
    40    14    55 1   
    41    14    56 1   
    42    14    57 1   
    43    15    16 1   
    44    15    58 1   
    45    15    59 1   
    46    16    17 ar  
    47    17    18 ar  
    48    17    60 1   
    49    18    24 ar  
    50    19    20 ar  
    51    19    29 ar  
    52    19    70 1   
    53    20    22 ar  
    54    20    61 1   
    55    21    31 1   
    56    22    23 ar  
    57    22    62 1   
    58    23    25 ar  
    59    23    30 ar  
    60    24    37 1   
    61    25    26 ar  
    62    25    63 1   
    63    26    32 ar  
    64    26    64 1   
    65    27    28 ar  
    66    27    65 1   
    67    28    29 ar  
    68    28    66 1   
    69    29    30 ar  
    70    31    34 1   
    71    31    38 2   
    72    32    33 ar  
    73    33    67 1   
    74    34    68 1   
@<TRIPOS>SUBSTRUCTURE
     1 HVX         1 TEMP              0 ****  ****    0 ROOT
