@<TRIPOS>MOLECULE
HVY
   78    82     1     0     0
SMALL
No Charge or Current Charge


@<TRIPOS>ATOM
      1 C4          11.3860     0.6100     0.0940 c3         1 HVY       0.151100
      2 C5           9.8290    -0.1480     1.8830 c6         1 HVY       0.159800
      3 C6           8.5610     0.6880     1.5010 c6         1 HVY       0.158800
      4 C7           6.3640     0.3620     0.2660 ca         1 HVY       0.275000
      5 O2          -6.8280     3.4840    -0.3980 o          1 HVY      -0.580100
      6 O3          -3.6800    -0.7110    -0.7560 o          1 HVY      -0.626100
      7 C8           5.4760    -0.5770    -0.2930 ca         1 HVY      -0.140000
      8 C9           4.1140    -0.2660    -0.4700 ca         1 HVY      -0.107000
      9 C10          3.6110     0.9920    -0.0830 ca         1 HVY       0.269000
     10 C11          1.0720     0.6560    -0.3280 ca         1 HVY       0.443900
     11 C12         -0.1220    -1.2790    -0.1390 ca         1 HVY       0.203900
     12 C13         -1.3070    -0.5860    -0.4600 ca         1 HVY      -0.398600
     13 C14         -1.1660     0.7880    -0.7170 ca         1 HVY       0.472900
     14 C15         -2.5420     2.9310    -1.1320 ca         1 HVY       0.285000
     15 C16         -1.6040     3.8290    -1.6780 ca         1 HVY      -0.113000
     16 C17         -1.9070     5.1950    -1.7980 ca         1 HVY      -0.100000
     17 C18         -3.1550     5.6720    -1.3750 ca         1 HVY      -0.120000
     18 C19         -4.1050     4.7860    -0.8420 ca         1 HVY      -0.080000
     19 C20         -3.8150     3.4080    -0.7240 ca         1 HVY      -0.076000
     20 C21         -6.1330     2.5580     0.0030 c          1 HVY       0.609100
     21 C22         -6.7450     1.3320     0.6930 c3         1 HVY      -0.162400
     22 C23         -7.1590     1.6380     2.1490 c3         1 HVY      -0.075100
     23 C24         -2.6350    -1.2960    -0.4870 c          1 HVY       0.653700
     24 C25         -3.6930    -3.5610    -0.0610 ca         1 HVY      -0.047000
     25 C26         -3.7190    -4.7290    -0.8610 ca         1 HVY      -0.054300
     26 C27         -4.7880    -5.6370    -0.7330 ca         1 HVY      -0.104000
     27 C28         -5.8200    -5.4000     0.1890 ca         1 HVY      -0.093000
     28 C29         -5.7840    -4.2550     0.9990 ca         1 HVY      -0.104000
     29 C30         -4.7260    -3.3390     0.8830 ca         1 HVY       0.126000
     30 C31         -2.6120    -5.0100    -1.8740 c3         1 HVY      -0.046800
     31 C32          4.4990     1.9360     0.4620 ca         1 HVY      -0.107000
     32 C33          5.8600     1.6240     0.6420 ca         1 HVY      -0.140000
     33 C34          8.5350    -0.4750    -0.7220 c6         1 HVY       0.158800
     34 C35          9.8040    -1.2770    -0.2770 c6         1 HVY       0.159800
     35 N2          10.6610    -0.5320     0.6990 n3         1 HVY      -0.713600
     36 N3           7.7300     0.0310     0.4390 nh         1 HVY      -0.777400
     37 N4           2.2670     1.3520    -0.2530 nu         1 HVY      -0.915900
     38 N5           1.0680    -0.6600    -0.0730 nb         1 HVY      -0.271000
     39 N6          -2.2680     1.5600    -1.0290 nu         1 HVY      -0.931900
     40 N7          -4.7570     2.4900    -0.1630 ns         1 HVY      -0.184000
     41 N8           0.0160     1.4120    -0.6360 nb         1 HVY      -0.336000
     42 N9          -2.6120    -2.6510    -0.2010 ns         1 HVY      -0.159000
     43 Cl1         -4.6920    -1.9660     1.9930 cl         1 HVY      -0.202000
     44 H1          12.0370     1.0900     0.8370 h1         1 HVY       0.031033
     45 H2          12.0190     0.2680    -0.7360 h1         1 HVY       0.031033
     46 H3          10.6940     1.3680    -0.2950 h1         1 HVY       0.031033
     47 H4          10.4280     0.4230     2.6080 h1         1 HVY       0.060200
     48 H5           9.4910    -1.0550     2.4050 h1         1 HVY       0.060200
     49 H6           7.9620     0.8340     2.4110 h1         1 HVY       0.040700
     50 H7           8.8790     1.6840     1.1590 h1         1 HVY       0.040700
     51 H8           5.8390    -1.5570    -0.5860 ha         1 HVY       0.115500
     52 H9           3.4640    -1.0050    -0.9250 ha         1 HVY       0.127000
     53 H10         -0.1080    -2.3440     0.0810 h4         1 HVY       0.014100
     54 H11         -0.6430     3.4710    -2.0320 ha         1 HVY       0.140000
     55 H12         -1.1750     5.8800    -2.2210 ha         1 HVY       0.113000
     56 H13         -3.3890     6.7310    -1.4610 ha         1 HVY       0.117000
     57 H14         -5.0570     5.1900    -0.5080 ha         1 HVY       0.127000
     58 H15         -7.6400     1.0240     0.1380 hc         1 HVY       0.064700
     59 H16         -6.0200     0.5100     0.7110 hc         1 HVY       0.064700
     60 H17         -7.9060     2.4410     2.1810 hc         1 HVY       0.041033
     61 H18         -7.5920     0.7480     2.6190 hc         1 HVY       0.041033
     62 H19         -6.2900     1.9510     2.7410 hc         1 HVY       0.041033
     63 H20         -4.8220    -6.5330    -1.3500 ha         1 HVY       0.121000
     64 H21         -6.6400    -6.1080     0.2820 ha         1 HVY       0.122000
     65 H22         -6.5710    -4.0820     1.7290 ha         1 HVY       0.132000
     66 H23         -1.6400    -5.1110    -1.3780 hc         1 HVY       0.048033
     67 H24         -2.7940    -5.9370    -2.4310 hc         1 HVY       0.048033
     68 H25         -2.5340    -4.1980    -2.6080 hc         1 HVY       0.048033
     69 H26          4.1340     2.9160     0.7570 ha         1 HVY       0.127000
     70 H27          6.5200     2.3760     1.0630 ha         1 HVY       0.115500
     71 H28          8.8490     0.3730    -1.3470 h1         1 HVY       0.040700
     72 H29          7.9270    -1.1300    -1.3620 h1         1 HVY       0.040700
     73 H30          9.4660    -2.2210     0.1760 h1         1 HVY       0.060200
     74 H31         10.3850    -1.5520    -1.1700 h1         1 HVY       0.060200
     75 H33          2.1080     2.3590    -0.2510 hn         1 HVY       0.510000
     76 H34         -3.1060     0.9710    -1.0340 hn         1 HVY       0.545000
     77 H35         -4.3410     1.6460     0.2070 hn         1 HVY       0.155000
     78 H36         -1.6950    -3.0510    -0.0630 hn         1 HVY       0.165000
@<TRIPOS>BOND
     1     1    35 1   
     2     1    44 1   
     3     1    45 1   
     4     1    46 1   
     5     2     3 1   
     6     2    35 1   
     7     2    47 1   
     8     2    48 1   
     9     3    36 1   
    10     3    49 1   
    11     3    50 1   
    12     4     7 ar  
    13     4    32 ar  
    14     4    36 1   
    15     5    20 2   
    16     6    23 2   
    17     7     8 ar  
    18     7    51 1   
    19     8     9 ar  
    20     8    52 1   
    21     9    31 ar  
    22     9    37 1   
    23    10    37 1   
    24    10    38 ar  
    25    10    41 ar  
    26    11    12 ar  
    27    11    38 ar  
    28    11    53 1   
    29    12    13 ar  
    30    12    23 1   
    31    13    39 1   
    32    13    41 ar  
    33    14    15 ar  
    34    14    19 ar  
    35    14    39 1   
    36    15    16 ar  
    37    15    54 1   
    38    16    17 ar  
    39    16    55 1   
    40    17    18 ar  
    41    17    56 1   
    42    18    19 ar  
    43    18    57 1   
    44    19    40 1   
    45    20    21 1   
    46    20    40 1   
    47    21    22 1   
    48    21    58 1   
    49    21    59 1   
    50    22    60 1   
    51    22    61 1   
    52    22    62 1   
    53    23    42 1   
    54    24    25 ar  
    55    24    29 ar  
    56    24    42 1   
    57    25    26 ar  
    58    25    30 1   
    59    26    27 ar  
    60    26    63 1   
    61    27    28 ar  
    62    27    64 1   
    63    28    29 ar  
    64    28    65 1   
    65    29    43 1   
    66    30    66 1   
    67    30    67 1   
    68    30    68 1   
    69    31    32 ar  
    70    31    69 1   
    71    32    70 1   
    72    33    34 1   
    73    33    36 1   
    74    33    71 1   
    75    33    72 1   
    76    34    35 1   
    77    34    73 1   
    78    34    74 1   
    79    37    75 1   
    80    39    76 1   
    81    40    77 1   
    82    42    78 1   
@<TRIPOS>SUBSTRUCTURE
     1 HVY         1 TEMP              0 ****  ****    0 ROOT
