@<TRIPOS>MOLECULE
HVY
   78    82     1     0     0
SMALL
abcg2


@<TRIPOS>ATOM
      1 C4          11.3150     0.5520    -0.4440 c3         1 HVY       0.151100
      2 C5           9.9380     0.1550     1.5160 c6         1 HVY       0.159800
      3 C6           8.6260     0.8300     1.1300 c6         1 HVY       0.158800
      4 C7           6.4430     0.2730     0.2180 ca         1 HVY       0.275000
      5 O2          -6.2060     2.8400    -1.1390 o          1 HVY      -0.580100
      6 O3          -3.4400    -0.8210    -0.9150 o          1 HVY      -0.626100
      7 C8           5.5300    -0.6110    -0.3730 ca         1 HVY      -0.140000
      8 C9           4.1930    -0.2930    -0.5390 ca         1 HVY      -0.107000
      9 C10          3.6990     0.9350    -0.0980 ca         1 HVY       0.269000
     10 C11          1.2270     0.6630    -0.3500 ca         1 HVY       0.443900
     11 C12          0.0960    -1.2750    -0.4230 ca         1 HVY       0.203900
     12 C13         -1.1230    -0.6240    -0.4700 ca         1 HVY      -0.398600
     13 C14         -1.0420     0.8020    -0.5060 ca         1 HVY       0.472900
     14 C15         -2.3950     2.8930    -0.4370 ca         1 HVY       0.285000
     15 C16         -1.4610     3.8870    -0.7290 ca         1 HVY      -0.113000
     16 C17         -1.8030     5.2230    -0.5870 ca         1 HVY      -0.100000
     17 C18         -3.0700     5.5910    -0.1570 ca         1 HVY      -0.120000
     18 C19         -3.9990     4.6090     0.1460 ca         1 HVY      -0.080000
     19 C20         -3.6720     3.2680     0.0160 ca         1 HVY      -0.076000
     20 C21         -5.8050     2.0910    -0.2690 c          1 HVY       0.609100
     21 C22         -6.5710     0.8740     0.2030 c3         1 HVY      -0.162400
     22 C23         -8.0420     0.9030    -0.1690 c3         1 HVY      -0.075100
     23 C24         -2.4170    -1.3270    -0.4590 c          1 HVY       0.653700
     24 C25         -3.6610    -3.2590     0.2480 ca         1 HVY      -0.047000
     25 C26         -3.9100    -4.3800    -0.5450 ca         1 HVY      -0.054300
     26 C27         -5.1140    -5.0600    -0.3810 ca         1 HVY      -0.104000
     27 C28         -6.0580    -4.6290     0.5370 ca         1 HVY      -0.093000
     28 C29         -5.8140    -3.5160     1.3270 ca         1 HVY      -0.104000
     29 C30         -4.6120    -2.8450     1.1790 ca         1 HVY       0.126000
     30 C31         -2.8990    -4.8330    -1.5570 c3         1 HVY      -0.046800
     31 C32          4.5950     1.8230     0.4900 ca         1 HVY      -0.107000
     32 C33          5.9360     1.5090     0.6360 ca         1 HVY      -0.140000
     33 C34          8.4570    -0.6900    -0.7470 c6         1 HVY       0.158800
     34 C35          9.7760    -1.3250    -0.3190 c6         1 HVY       0.159800
     35 N2          10.6580    -0.4260     0.4000 n3         1 HVY      -0.713600
     36 N3           7.7770    -0.0940     0.4000 nh         1 HVY      -0.777400
     37 N4           2.3740     1.3660    -0.2460 nu         1 HVY      -0.915900
     38 N5           1.2700    -0.6700    -0.3780 nb         1 HVY      -0.271000
     39 N6          -2.1750     1.5260    -0.5950 nu         1 HVY      -0.931900
     40 N7          -4.6030     2.2600     0.3470 ns         1 HVY      -0.184000
     41 N8           0.1250     1.4130    -0.4230 nb         1 HVY      -0.336000
     42 N9          -2.4470    -2.5530     0.1090 ns         1 HVY      -0.159000
     43 CL1         -4.2790    -1.4830     2.1920 cl         1 HVY      -0.202000
     44 H1          11.9930     1.1550     0.1620 h1         1 HVY       0.031033
     45 H2          11.9160     0.0370    -1.1960 h1         1 HVY       0.031033
     46 H3          10.6490     1.2450    -0.9740 h1         1 HVY       0.031033
     47 H4          10.5760     0.8800     2.0230 h1         1 HVY       0.060200
     48 H5           9.7210    -0.6410     2.2360 h1         1 HVY       0.060200
     49 H6           8.1220     1.1350     2.0490 h1         1 HVY       0.040700
     50 H7           8.8240     1.7470     0.5530 h1         1 HVY       0.040700
     51 H8           5.8570    -1.5870    -0.7070 ha         1 HVY       0.115500
     52 H9           3.5390    -1.0150    -1.0000 ha         1 HVY       0.127000
     53 H10          0.1380    -2.3600    -0.4410 h4         1 HVY       0.014100
     54 H11         -0.4780     3.6150    -1.0770 ha         1 HVY       0.140000
     55 H12         -1.0690     5.9820    -0.8230 ha         1 HVY       0.113000
     56 H13         -3.3320     6.6350    -0.0500 ha         1 HVY       0.117000
     57 H14         -4.9820     4.8810     0.5080 ha         1 HVY       0.127000
     58 H15         -6.0860    -0.0040    -0.2360 hc         1 HVY       0.064700
     59 H16         -6.4490     0.7630     1.2840 hc         1 HVY       0.064700
     60 H17         -8.1830     0.9630    -1.2470 hc         1 HVY       0.041033
     61 H18         -8.5320    -0.0060     0.1790 hc         1 HVY       0.041033
     62 H19         -8.5550     1.7510     0.2850 hc         1 HVY       0.041033
     63 H20         -5.3140    -5.9340    -0.9880 ha         1 HVY       0.121000
     64 H21         -6.9920    -5.1640     0.6450 ha         1 HVY       0.122000
     65 H22         -6.5430    -3.1800     2.0510 ha         1 HVY       0.132000
     66 H23         -1.9270    -5.0280    -1.1020 hc         1 HVY       0.048033
     67 H24         -3.2280    -5.7480    -2.0450 hc         1 HVY       0.048033
     68 H25         -2.7480    -4.0770    -2.3290 hc         1 HVY       0.048033
     69 H26          4.2460     2.7880     0.8370 ha         1 HVY       0.127000
     70 H27          6.5780     2.2540     1.0870 ha         1 HVY       0.115500
     71 H28          8.6260     0.0640    -1.5300 h1         1 HVY       0.040700
     72 H29          7.8380    -1.4690    -1.1880 h1         1 HVY       0.040700
     73 H30          9.5550    -2.1800     0.3280 h1         1 HVY       0.060200
     74 H31         10.2900    -1.7120    -1.2010 h1         1 HVY       0.060200
     75 H33          2.2310     2.3620    -0.1690 hn         1 HVY       0.510000
     76 H34         -3.0070     0.9540    -0.7180 hn         1 HVY       0.545000
     77 H35         -4.3410     1.5890     1.0550 hn         1 HVY       0.155000
     78 H36         -1.6320    -2.9200     0.5750 hn         1 HVY       0.165000
@<TRIPOS>BOND
     1     1    35 1   
     2     1    44 1   
     3     1    45 1   
     4     1    46 1   
     5     2     3 1   
     6     2    35 1   
     7     2    47 1   
     8     2    48 1   
     9     3    36 1   
    10     3    49 1   
    11     3    50 1   
    12     4     7 ar  
    13     4    32 ar  
    14     4    36 1   
    15     5    20 2   
    16     6    23 2   
    17     7     8 ar  
    18     7    51 1   
    19     8     9 ar  
    20     8    52 1   
    21     9    31 ar  
    22     9    37 1   
    23    10    37 1   
    24    10    38 ar  
    25    10    41 ar  
    26    11    12 ar  
    27    11    38 ar  
    28    11    53 1   
    29    12    13 ar  
    30    12    23 1   
    31    13    39 1   
    32    13    41 ar  
    33    14    15 ar  
    34    14    19 ar  
    35    14    39 1   
    36    15    16 ar  
    37    15    54 1   
    38    16    17 ar  
    39    16    55 1   
    40    17    18 ar  
    41    17    56 1   
    42    18    19 ar  
    43    18    57 1   
    44    19    40 1   
    45    20    21 1   
    46    20    40 1   
    47    21    22 1   
    48    21    58 1   
    49    21    59 1   
    50    22    60 1   
    51    22    61 1   
    52    22    62 1   
    53    23    42 1   
    54    24    25 ar  
    55    24    29 ar  
    56    24    42 1   
    57    25    26 ar  
    58    25    30 1   
    59    26    27 ar  
    60    26    63 1   
    61    27    28 ar  
    62    27    64 1   
    63    28    29 ar  
    64    28    65 1   
    65    29    43 1   
    66    30    66 1   
    67    30    67 1   
    68    30    68 1   
    69    31    32 ar  
    70    31    69 1   
    71    32    70 1   
    72    33    34 1   
    73    33    36 1   
    74    33    71 1   
    75    33    72 1   
    76    34    35 1   
    77    34    73 1   
    78    34    74 1   
    79    37    75 1   
    80    39    76 1   
    81    40    77 1   
    82    42    78 1   
@<TRIPOS>SUBSTRUCTURE
     1 HVY         1 TEMP              0 ****  ****    0 ROOT
