@<TRIPOS>MOLECULE
HVZ
   40    41     1     0     0
SMALL
abcg2


@<TRIPOS>ATOM
      1 C5           5.8460     0.6610    -0.7070 ca         1 HVZ      -0.105000
      2 C4           6.2980    -0.5630    -0.2370 ca         1 HVZ       0.135000
      3 C6           4.7670     1.2650    -0.0810 ca         1 HVZ      -0.075000
      4 C3           5.6930    -1.1860     0.8420 ca         1 HVZ      -0.105000
      5 C2           4.6150    -0.5660     1.4580 ca         1 HVZ      -0.075000
      6 C1           4.1430     0.6600     1.0050 ca         1 HVZ      -0.129300
      7 C12         -0.0180     0.1580     0.0600 cc         1 HVZ       0.164300
      8 C13          0.8990    -0.0120     1.0630 cd         1 HVZ      -0.189000
      9 C14         -1.1930    -0.6850    -0.2870 c3         1 HVZ       0.089700
     10 C16         -3.5730    -0.3160    -0.6510 c          1 HVZ       0.616100
     11 C19         -4.8100     0.5370    -0.3610 c3         1 HVZ      -0.314000
     12 C20         -4.6690     1.5930     0.7280 c3         1 HVZ      -0.083600
     13 C21         -5.3250     1.1400    -1.6650 c3         1 HVZ      -0.083600
     14 C8           2.9550     1.3150     1.6560 c3         1 HVZ       0.130900
     15 N10          1.3650     1.7970    -0.0880 nd         1 HVZ      -0.200800
     16 N11          0.3110     1.2810    -0.6160 nc         1 HVZ      -0.344000
     17 N15         -2.4290     0.0460    -0.0720 ns         1 HVZ      -0.467900
     18 N9           1.7300     1.0340     0.9270 na         1 HVZ       0.125800
     19 O1          -5.4520    -1.3940     1.3640 o          1 HVZ      -0.512000
     20 O18         -3.6770    -1.2720    -1.4070 o          1 HVZ      -0.618100
     21 O24         -7.3140     0.0220     0.4370 o          1 HVZ      -0.512000
     22 S22         -6.0400    -0.6640     0.2450 s6         1 HVZ       0.920200
     23 CL7          7.6490    -1.3240    -1.0110 cl         1 HVZ      -0.192000
     24 H1           6.3300     1.1420    -1.5460 ha         1 HVZ       0.135500
     25 H2           4.4150     2.2220    -0.4460 ha         1 HVZ       0.123500
     26 H3           6.0530    -2.1390     1.2020 ha         1 HVZ       0.135500
     27 H4           4.1450    -1.0520     2.3050 ha         1 HVZ       0.123500
     28 H5           1.0090    -0.7600     1.8310 h4         1 HVZ       0.171000
     29 H6          -1.1440    -0.9880    -1.3340 h1         1 HVZ       0.070200
     30 H7          -1.1760    -1.5970     0.3140 h1         1 HVZ       0.070200
     31 H8          -3.9690     2.3660     0.4100 hc         1 HVZ       0.061033
     32 H9          -5.6220     2.0890     0.9010 hc         1 HVZ       0.061033
     33 H10         -4.3240     1.1830     1.6780 hc         1 HVZ       0.061033
     34 H11         -4.5660     1.8050    -2.0770 hc         1 HVZ       0.061033
     35 H12         -5.5410     0.3790    -2.4150 hc         1 HVZ       0.061033
     36 H13         -6.2250     1.7270    -1.4910 hc         1 HVZ       0.061033
     37 H14          2.8200     0.9670     2.6780 h1         1 HVZ       0.078200
     38 H15          3.0680     2.3970     1.6880 h1         1 HVZ       0.078200
     39 H16         -2.4180     0.7950     0.6000 hn         1 HVZ       0.329500
     40 H17         -6.1590    -1.5020    -0.8160 hs         1 HVZ       0.140800
@<TRIPOS>BOND
     1     1     2 ar  
     2     1     3 ar  
     3     1    24 1   
     4     2     4 ar  
     5     2    23 1   
     6     3     6 ar  
     7     3    25 1   
     8     4     5 ar  
     9     4    26 1   
    10     5     6 ar  
    11     5    27 1   
    12     6    14 1   
    13     7     8 2   
    14     7     9 1   
    15     7    16 1   
    16     8    18 1   
    17     8    28 1   
    18     9    17 1   
    19     9    29 1   
    20     9    30 1   
    21    10    11 1   
    22    10    17 1   
    23    10    20 2   
    24    11    12 1   
    25    11    13 1   
    26    11    22 1   
    27    12    31 1   
    28    12    32 1   
    29    12    33 1   
    30    13    34 1   
    31    13    35 1   
    32    13    36 1   
    33    14    18 1   
    34    14    37 1   
    35    14    38 1   
    36    15    16 2   
    37    15    18 1   
    38    17    39 1   
    39    19    22 2   
    40    21    22 2   
    41    22    40 1   
@<TRIPOS>SUBSTRUCTURE
     1 HVZ         1 TEMP              0 ****  ****    0 ROOT
