@<TRIPOS>MOLECULE
HVZ
   40    41     1     0     0
SMALL
No Charge or Current Charge


@<TRIPOS>ATOM
      1 C5           5.5480    -0.1260    -0.7160 ca         1 HVZ      -0.105000
      2 C4           6.2260    -1.0480     0.0960 ca         1 HVZ       0.135000
      3 C6           4.4930     0.6370    -0.1840 ca         1 HVZ      -0.075000
      4 C3           5.8550    -1.2080     1.4400 ca         1 HVZ      -0.105000
      5 C2           4.8010    -0.4470     1.9740 ca         1 HVZ      -0.075000
      6 C1           4.1100     0.4780     1.1650 ca         1 HVZ      -0.129300
      7 C12          0.0430     0.8430    -0.2880 cc         1 HVZ       0.164300
      8 C13          1.0430     0.2620     0.4270 cd         1 HVZ      -0.189000
      9 C14         -1.0670     0.1650    -1.0500 c3         1 HVZ       0.089700
     10 C16         -3.5660    -0.1120    -0.9310 c          1 HVZ       0.616100
     11 C19         -4.8690     0.3990    -0.3000 c3         1 HVZ      -0.314000
     12 C20         -4.6660     1.5030     0.7930 c3         1 HVZ      -0.083600
     13 C21         -5.7960     0.9580    -1.4250 c3         1 HVZ      -0.083600
     14 C8           2.9650     1.3040     1.7510 c3         1 HVZ       0.130900
     15 N10          1.1910     2.5130     0.4910 nd         1 HVZ      -0.200800
     16 N11          0.1460     2.2050    -0.2360 nc         1 HVZ      -0.344000
     17 N15         -2.4020     0.5090    -0.5460 ns         1 HVZ      -0.467900
     18 N9           1.7580     1.3350     0.9080 na         1 HVZ       0.125800
     19 O1          -4.6980    -1.5910     1.4830 o          1 HVZ      -0.512000
     20 O18         -3.5570    -1.0240    -1.7440 o          1 HVZ      -0.618100
     21 O24         -7.0080    -0.7530     0.8360 o          1 HVZ      -0.512000
     22 S22         -5.6210    -1.0770     0.4590 s6         1 HVZ       0.920200
     23 Cl7          7.5460    -2.0010    -0.5710 cl         1 HVZ      -0.192000
     24 H1           5.8390    -0.0020    -1.7560 ha         1 HVZ       0.135500
     25 H2           3.9770     1.3520    -0.8220 ha         1 HVZ       0.123500
     26 H3           6.3840    -1.9220     2.0660 ha         1 HVZ       0.135500
     27 H4           4.5220    -0.5790     3.0180 ha         1 HVZ       0.123500
     28 H5           1.2910    -0.7740     0.6190 h4         1 HVZ       0.171000
     29 H6          -1.0040     0.4520    -2.1080 h1         1 HVZ       0.070200
     30 H7          -0.9320    -0.9220    -0.9870 h1         1 HVZ       0.070200
     31 H8          -4.2200     2.4090     0.3650 hc         1 HVZ       0.061033
     32 H9          -5.6280     1.7930     1.2360 hc         1 HVZ       0.061033
     33 H10         -4.0220     1.1530     1.6100 hc         1 HVZ       0.061033
     34 H11         -5.3190     1.8060    -1.9330 hc         1 HVZ       0.061033
     35 H12         -6.0150     0.1960    -2.1840 hc         1 HVZ       0.061033
     36 H13         -6.7520     1.3100    -1.0170 hc         1 HVZ       0.061033
     37 H14          2.6790     0.9030     2.7310 h1         1 HVZ       0.078200
     38 H15          3.3120     2.3330     1.9060 h1         1 HVZ       0.078200
     39 H16         -2.4840     1.2700     0.1170 hn         1 HVZ       0.329500
     40 H17         -5.6360    -1.9450    -0.6070 hs         1 HVZ       0.140800
@<TRIPOS>BOND
     1     1     2 ar  
     2     1     3 ar  
     3     1    24 1   
     4     2     4 ar  
     5     2    23 1   
     6     3     6 ar  
     7     3    25 1   
     8     4     5 ar  
     9     4    26 1   
    10     5     6 ar  
    11     5    27 1   
    12     6    14 1   
    13     7     8 2   
    14     7     9 1   
    15     7    16 1   
    16     8    18 1   
    17     8    28 1   
    18     9    17 1   
    19     9    29 1   
    20     9    30 1   
    21    10    11 1   
    22    10    17 1   
    23    10    20 2   
    24    11    12 1   
    25    11    13 1   
    26    11    22 1   
    27    12    31 1   
    28    12    32 1   
    29    12    33 1   
    30    13    34 1   
    31    13    35 1   
    32    13    36 1   
    33    14    18 1   
    34    14    37 1   
    35    14    38 1   
    36    15    16 2   
    37    15    18 1   
    38    17    39 1   
    39    19    22 2   
    40    21    22 2   
    41    22    40 1   
@<TRIPOS>SUBSTRUCTURE
     1 HVZ         1 TEMP              0 ****  ****    0 ROOT
