@<TRIPOS>MOLECULE
HW0
   58    60     1     0     0
SMALL
No Charge or Current Charge


@<TRIPOS>ATOM
      1 N22          8.4220     2.4870    -1.1990 nv         1 HW0      -1.052900
      2 C22          7.9470     1.6790    -0.2500 ca         1 HW0       0.596900
      3 C23          8.3850     1.7050     1.0770 ca         1 HW0      -0.231000
      4 C24          7.8160     0.7980     1.9820 ca         1 HW0      -0.035000
      5 C25          6.8390    -0.0830     1.4910 ca         1 HW0      -0.214000
      6 N21          7.0310     0.8540    -0.7350 nb         1 HW0      -0.752000
      7 C26          6.4760    -0.0240     0.1310 ca         1 HW0       0.399300
      8 C14          5.4170    -0.9630    -0.4310 c3         1 HW0      -0.127700
      9 C13          3.9800    -0.5130    -0.0840 c3         1 HW0      -0.071400
     10 C12          2.8970    -1.4640    -0.6400 c3         1 HW0      -0.074400
     11 C11          1.4610    -1.0150    -0.2910 c3         1 HW0      -0.079400
     12 C10          0.3830    -1.9650    -0.8460 c3         1 HW0       0.162600
     13 O09         -0.8980    -1.4390    -0.4610 os         1 HW0      -0.455000
     14 C4          -2.0770    -2.1680    -0.8990 c5         1 HW0       0.149300
     15 C5          -2.2170    -3.4870    -0.0500 c5         1 HW0       0.110800
     16 N1          -3.3980    -3.2990     0.8450 n7         1 HW0      -0.832400
     17 C2          -3.5090    -1.8290     0.9800 c5         1 HW0       0.142800
     18 C3          -3.3420    -1.3560    -0.4850 c5         1 HW0      -0.088700
     19 C08         -3.2700     0.1840    -0.6910 c3         1 HW0      -0.106700
     20 C06         -4.5510     0.9130    -0.3120 ca         1 HW0       0.396300
     21 N01         -5.4890     1.0340    -1.2790 nb         1 HW0      -0.757000
     22 C02         -6.6080     1.6620    -0.9520 ca         1 HW0       0.598900
     23 N02         -7.4520     1.7080    -1.9840 nv         1 HW0      -1.055900
     24 C03         -6.8940     2.1970     0.3050 ca         1 HW0      -0.233000
     25 C04         -5.9280     2.0800     1.3150 ca         1 HW0       0.000700
     26 C05         -4.7320     1.4200     0.9900 ca         1 HW0      -0.214000
     27 C07         -6.1690     2.6360     2.7090 c3         1 HW0      -0.053800
     28 H1           8.1970     2.2060    -2.1450 hn         1 HW0       0.467000
     29 H2           9.3360     2.9010    -1.0520 hn         1 HW0       0.467000
     30 H3           9.1440     2.4110     1.3980 ha         1 HW0       0.120000
     31 H4           8.1190     0.7780     3.0280 ha         1 HW0       0.114000
     32 H5           6.3670    -0.8040     2.1520 ha         1 HW0       0.123000
     33 H6           5.5160    -1.0420    -1.5210 hc         1 HW0       0.051200
     34 H7           5.5820    -1.9730    -0.0360 hc         1 HW0       0.051200
     35 H8           3.8760    -0.4460     1.0070 hc         1 HW0       0.049700
     36 H9           3.8150     0.4960    -0.4820 hc         1 HW0       0.049700
     37 H10          2.9990    -1.5280    -1.7300 hc         1 HW0       0.036700
     38 H11          3.0640    -2.4730    -0.2420 hc         1 HW0       0.036700
     39 H12          1.3550    -0.9540     0.7990 hc         1 HW0       0.053200
     40 H13          1.2890    -0.0080    -0.6900 hc         1 HW0       0.053200
     41 H14          0.4660    -2.0160    -1.9400 h1         1 HW0       0.018200
     42 H15          0.5390    -2.9710    -0.4380 h1         1 HW0       0.018200
     43 H16         -2.0230    -2.3470    -1.9820 h1         1 HW0       0.043700
     44 H17         -2.3510    -4.3680    -0.6930 h1         1 HW0       0.051200
     45 H18         -1.3170    -3.6610     0.5560 h1         1 HW0       0.051200
     46 H19         -4.2340    -3.6270     0.3460 hn         1 HW0       0.395000
     47 H21         -4.4770    -1.5320     1.4090 h1         1 HW0       0.059200
     48 H22         -2.7140    -1.4270     1.6260 h1         1 HW0       0.059200
     49 H23         -4.1970    -1.6970    -1.0810 hc         1 HW0       0.063700
     50 H24         -2.4410     0.6010    -0.1080 hc         1 HW0       0.064700
     51 H25         -3.0250     0.3970    -1.7390 hc         1 HW0       0.064700
     52 H26         -7.2200     1.0830    -2.7460 hn         1 HW0       0.467000
     53 H27         -8.4370     1.8310    -1.7810 hn         1 HW0       0.467000
     54 H28         -7.8420     2.6930     0.4910 ha         1 HW0       0.118000
     55 H29         -3.9510     1.2960     1.7350 ha         1 HW0       0.124000
     56 H30         -6.5990     1.8700     3.3650 hc         1 HW0       0.046700
     57 H31         -5.2340     2.9830     3.1660 hc         1 HW0       0.046700
     58 H32         -6.8610     3.4860     2.6860 hc         1 HW0       0.046700
@<TRIPOS>BOND
     1     1     2 1   
     2     1    28 1   
     3     1    29 1   
     4     2     3 ar  
     5     2     6 ar  
     6     3     4 ar  
     7     3    30 1   
     8     4     5 ar  
     9     4    31 1   
    10     5     7 ar  
    11     5    32 1   
    12     6     7 ar  
    13     7     8 1   
    14     8     9 1   
    15     8    33 1   
    16     8    34 1   
    17     9    10 1   
    18     9    35 1   
    19     9    36 1   
    20    10    11 1   
    21    10    37 1   
    22    10    38 1   
    23    11    12 1   
    24    11    39 1   
    25    11    40 1   
    26    12    13 1   
    27    12    41 1   
    28    12    42 1   
    29    13    14 1   
    30    14    15 1   
    31    14    18 1   
    32    14    43 1   
    33    15    16 1   
    34    15    44 1   
    35    15    45 1   
    36    16    17 1   
    37    16    46 1   
    38    17    18 1   
    39    17    47 1   
    40    17    48 1   
    41    18    19 1   
    42    18    49 1   
    43    19    20 1   
    44    19    50 1   
    45    19    51 1   
    46    20    21 ar  
    47    20    26 ar  
    48    21    22 ar  
    49    22    23 1   
    50    22    24 ar  
    51    23    52 1   
    52    23    53 1   
    53    24    25 ar  
    54    24    54 1   
    55    25    26 ar  
    56    25    27 1   
    57    26    55 1   
    58    27    56 1   
    59    27    57 1   
    60    27    58 1   
@<TRIPOS>SUBSTRUCTURE
     1 HW0         1 TEMP              0 ****  ****    0 ROOT
