@<TRIPOS>MOLECULE
HW0
   58    60     1     0     0
SMALL
bcc


@<TRIPOS>ATOM
      1 N22          7.4610     3.0620    -0.7600 nv         1 HW0      -0.942500
      2 C22          7.4580     1.8480    -0.1330 ca         1 HW0       0.662200
      3 C23          8.3700     1.5680     0.9000 ca         1 HW0      -0.314300
      4 C24          8.2870     0.3430     1.5210 ca         1 HW0      -0.053000
      5 C25          7.3170    -0.5740     1.1220 ca         1 HW0      -0.297300
      6 N21          6.5360     0.9720    -0.5170 nb         1 HW0      -0.752000
      7 C26          6.4600    -0.2120     0.0930 ca         1 HW0       0.464600
      8 C14          5.3700    -1.1300    -0.3780 c3         1 HW0      -0.127700
      9 C13          3.9870    -0.6690     0.0860 c3         1 HW0      -0.071400
     10 C12          2.8650    -1.5220    -0.4900 c3         1 HW0      -0.074400
     11 C11          1.4860    -1.0780    -0.0190 c3         1 HW0      -0.079400
     12 C10          0.3810    -1.8990    -0.6530 c3         1 HW0       0.139400
     13 O09         -0.8650    -1.4440    -0.1860 os         1 HW0      -0.408600
     14 C4          -1.9760    -2.0590    -0.8000 c5         1 HW0       0.126100
     15 C5          -2.2800    -3.4510    -0.1970 c5         1 HW0       0.110800
     16 N1          -3.4170    -3.3040     0.7220 n7         1 HW0      -0.777200
     17 C2          -3.6600    -1.8730     0.8650 c5         1 HW0       0.142800
     18 C3          -3.2330    -1.2550    -0.4660 c5         1 HW0      -0.088700
     19 C08         -3.0650     0.2600    -0.4660 c3         1 HW0      -0.106700
     20 C06         -4.3720     0.9590    -0.2150 ca         1 HW0       0.461600
     21 N01         -5.3050     0.8230    -1.1600 nb         1 HW0      -0.757000
     22 C02         -6.4870     1.4020    -0.9790 ca         1 HW0       0.664200
     23 N02         -7.3990     1.2840    -1.9890 nv         1 HW0      -0.945500
     24 C03         -6.7900     2.1480     0.1740 ca         1 HW0      -0.316300
     25 C04         -5.8280     2.2890     1.1520 ca         1 HW0       0.000700
     26 C05         -4.5850     1.6790     0.9470 ca         1 HW0      -0.297300
     27 C07         -6.0970     3.0670     2.4040 c3         1 HW0      -0.053800
     28 H1           6.9860     3.0990    -1.6470 hn         1 HW0       0.411800
     29 H2           8.3130     3.5960    -0.7320 hn         1 HW0       0.411800
     30 H3           9.1140     2.2990     1.1920 ha         1 HW0       0.138000
     31 H4           8.9770     0.0950     2.3180 ha         1 HW0       0.132000
     32 H5           7.2350    -1.5440     1.5920 ha         1 HW0       0.141000
     33 H6           5.3860    -1.1680    -1.4710 hc         1 HW0       0.051200
     34 H7           5.5570    -2.1450    -0.0200 hc         1 HW0       0.051200
     35 H8           3.9450    -0.6910     1.1790 hc         1 HW0       0.049700
     36 H9           3.8410     0.3740    -0.2090 hc         1 HW0       0.049700
     37 H10          2.9100    -1.4810    -1.5840 hc         1 HW0       0.036700
     38 H11          3.0250    -2.5710    -0.2190 hc         1 HW0       0.036700
     39 H12          1.4250    -1.1640     1.0710 hc         1 HW0       0.053200
     40 H13          1.3380    -0.0220    -0.2630 hc         1 HW0       0.053200
     41 H14          0.4330    -1.8110    -1.7490 h1         1 HW0       0.018200
     42 H15          0.5310    -2.9630    -0.4190 h1         1 HW0       0.018200
     43 H16         -1.8110    -2.1160    -1.8840 h1         1 HW0       0.043700
     44 H17         -2.5140    -4.1790    -0.9750 h1         1 HW0       0.051200
     45 H18         -1.3980    -3.8290     0.3290 h1         1 HW0       0.051200
     46 H19         -4.2330    -3.7200     0.2930 hn         1 HW0       0.339800
     47 H21         -4.7060    -1.6860     1.1120 h1         1 HW0       0.059200
     48 H22         -3.0580    -1.4600     1.6830 h1         1 HW0       0.059200
     49 H23         -3.9900    -1.5150    -1.2150 hc         1 HW0       0.063700
     50 H24         -2.3400     0.5590     0.2920 hc         1 HW0       0.064700
     51 H25         -2.6680     0.5820    -1.4340 hc         1 HW0       0.064700
     52 H26         -7.2390     0.5390    -2.6470 hn         1 HW0       0.411800
     53 H27         -8.3680     1.4290    -1.7590 hn         1 HW0       0.411800
     54 H28         -7.7660     2.6060     0.2820 ha         1 HW0       0.136000
     55 H29         -3.8020     1.7630     1.6900 ha         1 HW0       0.142000
     56 H30         -6.0710     2.4150     3.2780 hc         1 HW0       0.046700
     57 H31         -5.3380     3.8350     2.5560 hc         1 HW0       0.046700
     58 H32         -7.0720     3.5530     2.3760 hc         1 HW0       0.046700
@<TRIPOS>BOND
     1     1     2 1   
     2     1    28 1   
     3     1    29 1   
     4     2     3 ar  
     5     2     6 ar  
     6     3     4 ar  
     7     3    30 1   
     8     4     5 ar  
     9     4    31 1   
    10     5     7 ar  
    11     5    32 1   
    12     6     7 ar  
    13     7     8 1   
    14     8     9 1   
    15     8    33 1   
    16     8    34 1   
    17     9    10 1   
    18     9    35 1   
    19     9    36 1   
    20    10    11 1   
    21    10    37 1   
    22    10    38 1   
    23    11    12 1   
    24    11    39 1   
    25    11    40 1   
    26    12    13 1   
    27    12    41 1   
    28    12    42 1   
    29    13    14 1   
    30    14    15 1   
    31    14    18 1   
    32    14    43 1   
    33    15    16 1   
    34    15    44 1   
    35    15    45 1   
    36    16    17 1   
    37    16    46 1   
    38    17    18 1   
    39    17    47 1   
    40    17    48 1   
    41    18    19 1   
    42    18    49 1   
    43    19    20 1   
    44    19    50 1   
    45    19    51 1   
    46    20    21 ar  
    47    20    26 ar  
    48    21    22 ar  
    49    22    23 1   
    50    22    24 ar  
    51    23    52 1   
    52    23    53 1   
    53    24    25 ar  
    54    24    54 1   
    55    25    26 ar  
    56    25    27 1   
    57    26    55 1   
    58    27    56 1   
    59    27    57 1   
    60    27    58 1   
@<TRIPOS>SUBSTRUCTURE
     1 HW0         1 TEMP              0 ****  ****    0 ROOT
