@<TRIPOS>MOLECULE
HW1
   61    63     1     0     0
SMALL
abcg2


@<TRIPOS>ATOM
      1 N02         -7.8510    -1.2110     1.7900 nv         1 HW1      -1.053900
      2 C02         -6.8960    -1.3550     0.8250 ca         1 HW1       0.597900
      3 C03         -7.1570    -2.1140    -0.3300 ca         1 HW1      -0.232000
      4 C04         -6.1540    -2.2830    -1.2610 ca         1 HW1       0.000700
      5 C07         -6.3800    -3.0690    -2.5160 c3         1 HW1      -0.053800
      6 C05         -4.9120    -1.6880    -1.0080 ca         1 HW1      -0.213000
      7 N01         -5.7150    -0.7920     1.0520 nb         1 HW1      -0.757000
      8 C06         -4.7410    -0.9550     0.1530 ca         1 HW1       0.395300
      9 C08         -3.4370    -0.2710     0.4560 c3         1 HW1      -0.106700
     10 C3          -3.5840     1.2460     0.4250 c5         1 HW1      -0.088700
     11 C2          -3.9120     1.8490    -0.9400 c5         1 HW1       0.144800
     12 N1          -3.6470     3.2780    -0.8080 n7         1 HW1      -0.837400
     13 C5          -2.6160     3.4350     0.2290 c5         1 HW1       0.113800
     14 C4          -2.3420     2.0390     0.8280 c5         1 HW1       0.151300
     15 O09         -1.2070     1.4260     0.2590 os         1 HW1      -0.454000
     16 C10          0.0170     1.8760     0.7860 c3         1 HW1       0.161600
     17 C11          1.1520     1.0600     0.1990 c3         1 HW1      -0.079400
     18 C12          2.5060     1.5160     0.7280 c3         1 HW1      -0.075400
     19 C13          3.6600     0.6660     0.2120 c3         1 HW1      -0.070400
     20 C14          5.0160     1.1480     0.7280 c3         1 HW1      -0.127700
     21 C26          6.1380     0.2460     0.3020 ca         1 HW1       0.400300
     22 N21          6.2200    -0.9280     0.9310 nb         1 HW1      -0.752000
     23 C22          7.1740    -1.7810     0.5730 ca         1 HW1       0.601900
     24 N22          7.2610    -2.9460     1.2810 nv         1 HW1      -1.058900
     25 C23          8.0910    -1.4960    -0.4530 ca         1 HW1      -0.235000
     26 C24          8.0100    -0.2810    -1.1040 ca         1 HW1       0.001700
     27 C25          7.0070     0.6120    -0.7120 ca         1 HW1      -0.216000
     28 C27          8.9800     0.0830    -2.1860 c3         1 HW1      -0.053800
     29 H1          -8.8110    -1.3390     1.5150 hn         1 HW1       0.466500
     30 H2          -7.7110    -0.4550     2.4410 hn         1 HW1       0.466500
     31 H3          -8.1350    -2.5580    -0.4780 ha         1 HW1       0.118000
     32 H4          -6.3450    -2.4180    -3.3910 hc         1 HW1       0.046367
     33 H5          -5.6050    -3.8250    -2.6500 hc         1 HW1       0.046367
     34 H6          -7.3470    -3.5710    -2.5110 hc         1 HW1       0.046367
     35 H7          -4.0970    -1.7930    -1.7130 ha         1 HW1       0.124000
     36 H8          -3.0910    -0.5840     1.4450 hc         1 HW1       0.064200
     37 H9          -2.6820    -0.5910    -0.2630 hc         1 HW1       0.064200
     38 H10         -4.3830     1.5280     1.1210 hc         1 HW1       0.064700
     39 H11         -3.2700     1.4050    -1.7100 h1         1 HW1       0.058200
     40 H12         -4.9440     1.6790    -1.2500 h1         1 HW1       0.058200
     41 H13         -4.4930     3.7320    -0.4960 hn         1 HW1       0.397000
     42 H15         -1.6960     3.8550    -0.1880 h1         1 HW1       0.049200
     43 H16         -2.9540     4.1280     1.0010 h1         1 HW1       0.049200
     44 H17         -2.2270     2.0840     1.9190 h1         1 HW1       0.043700
     45 H18          0.1770     2.9420     0.5670 h1         1 HW1       0.018200
     46 H19          0.0190     1.7800     1.8830 h1         1 HW1       0.018200
     47 H20          1.0000     0.0030     0.4380 hc         1 HW1       0.052700
     48 H21          1.1360     1.1450    -0.8920 hc         1 HW1       0.052700
     49 H22          2.6710     2.5630     0.4560 hc         1 HW1       0.037200
     50 H23          2.5010     1.4820     1.8230 hc         1 HW1       0.037200
     51 H24          3.5110    -0.3750     0.5120 hc         1 HW1       0.047200
     52 H25          3.6650     0.6760    -0.8830 hc         1 HW1       0.047200
     53 H26          5.2010     2.1650     0.3740 hc         1 HW1       0.053200
     54 H27          4.9890     1.1890     1.8210 hc         1 HW1       0.053200
     55 H28          6.4360    -3.2230     1.7880 hn         1 HW1       0.469000
     56 H29          7.7690    -3.7090     0.8680 hn         1 HW1       0.469000
     57 H30          8.8460    -2.2230    -0.7240 ha         1 HW1       0.118000
     58 H31          6.9060     1.5750    -1.1950 ha         1 HW1       0.121000
     59 H32          9.7670     0.7300    -1.7900 hc         1 HW1       0.046033
     60 H33          9.4610    -0.7970    -2.6090 hc         1 HW1       0.046033
     61 H34          8.4900     0.6300    -2.9910 hc         1 HW1       0.046033
@<TRIPOS>BOND
     1     1     2 1   
     2     1    29 1   
     3     1    30 1   
     4     2     3 ar  
     5     2     7 ar  
     6     3     4 ar  
     7     3    31 1   
     8     4     5 1   
     9     4     6 ar  
    10     5    32 1   
    11     5    33 1   
    12     5    34 1   
    13     6     8 ar  
    14     6    35 1   
    15     7     8 ar  
    16     8     9 1   
    17     9    10 1   
    18     9    36 1   
    19     9    37 1   
    20    10    11 1   
    21    10    14 1   
    22    10    38 1   
    23    11    12 1   
    24    11    39 1   
    25    11    40 1   
    26    12    13 1   
    27    12    41 1   
    28    13    14 1   
    29    13    42 1   
    30    13    43 1   
    31    14    15 1   
    32    14    44 1   
    33    15    16 1   
    34    16    17 1   
    35    16    45 1   
    36    16    46 1   
    37    17    18 1   
    38    17    47 1   
    39    17    48 1   
    40    18    19 1   
    41    18    49 1   
    42    18    50 1   
    43    19    20 1   
    44    19    51 1   
    45    19    52 1   
    46    20    21 1   
    47    20    53 1   
    48    20    54 1   
    49    21    22 ar  
    50    21    27 ar  
    51    22    23 ar  
    52    23    24 1   
    53    23    25 ar  
    54    24    55 1   
    55    24    56 1   
    56    25    26 ar  
    57    25    57 1   
    58    26    27 ar  
    59    26    28 1   
    60    27    58 1   
    61    28    59 1   
    62    28    60 1   
    63    28    61 1   
@<TRIPOS>SUBSTRUCTURE
     1 HW1         1 TEMP              0 ****  ****    0 ROOT
