@<TRIPOS>MOLECULE
HW1
   61    63     1     0     0
SMALL
No Charge or Current Charge


@<TRIPOS>ATOM
      1 N02         -7.8060    -1.7980     1.6580 nv         1 HW1      -1.053900
      2 C02         -6.9030    -1.7170     0.6790 ca         1 HW1       0.597900
      3 C03         -7.1080    -2.2280    -0.6040 ca         1 HW1      -0.232000
      4 C04         -6.0860    -2.0750    -1.5530 ca         1 HW1       0.000700
      5 C07         -6.2370    -2.6030    -2.9700 c3         1 HW1      -0.053800
      6 C05         -4.9210    -1.4070    -1.1440 ca         1 HW1      -0.213000
      7 N01         -5.8140    -1.0820     1.0840 nb         1 HW1      -0.757000
      8 C06         -4.8230    -0.9270     0.1770 ca         1 HW1       0.395300
      9 C08         -3.5770    -0.1890     0.6460 c3         1 HW1      -0.106700
     10 C3          -3.6610     1.3540     0.4720 c5         1 HW1      -0.088700
     11 C2          -3.7510     1.8600    -0.9900 c5         1 HW1       0.144800
     12 N1          -3.6700     3.3270    -0.8140 n7         1 HW1      -0.837400
     13 C5          -2.5460     3.5100     0.1510 c5         1 HW1       0.113800
     14 C4          -2.4340     2.1740     0.9760 c5         1 HW1       0.151300
     15 O09         -1.2210     1.4720     0.5910 os         1 HW1      -0.454000
     16 C10          0.0270     2.0070     1.0610 c3         1 HW1       0.161600
     17 C11          1.1500     1.0850     0.5470 c3         1 HW1      -0.079400
     18 C12          2.5560     1.5460     0.9880 c3         1 HW1      -0.075400
     19 C13          3.6840     0.6250     0.4740 c3         1 HW1      -0.070400
     20 C14          5.0920     1.0860     0.9140 c3         1 HW1      -0.127700
     21 C26          6.1950     0.1760     0.3930 ca         1 HW1       0.400300
     22 N21          6.7240    -0.7030     1.2740 nb         1 HW1      -0.752000
     23 C22          7.6830    -1.4980     0.8230 ca         1 HW1       0.601900
     24 N22          8.1170    -2.3190     1.7800 nv         1 HW1      -1.058900
     25 C23          8.1780    -1.5030    -0.4830 ca         1 HW1      -0.235000
     26 C24          7.6350    -0.5970    -1.4060 ca         1 HW1       0.001700
     27 C25          6.6210     0.2600    -0.9470 ca         1 HW1      -0.216000
     28 C27          8.1260    -0.5410    -2.8420 c3         1 HW1      -0.053800
     29 H1          -8.7730    -1.9390     1.3900 hn         1 HW1       0.466500
     30 H2          -7.6350    -1.1940     2.4530 hn         1 HW1       0.466500
     31 H3          -8.0350    -2.7330    -0.8550 ha         1 HW1       0.118000
     32 H4          -6.6380    -1.8280    -3.6340 hc         1 HW1       0.046367
     33 H5          -5.2730    -2.9280    -3.3780 hc         1 HW1       0.046367
     34 H6          -6.9180    -3.4620    -3.0060 hc         1 HW1       0.046367
     35 H7          -4.1000    -1.2560    -1.8390 ha         1 HW1       0.124000
     36 H8          -3.3890    -0.4230     1.7010 hc         1 HW1       0.064200
     37 H9          -2.7100    -0.5810     0.1020 hc         1 HW1       0.064200
     38 H10         -4.5540     1.6690     1.0250 hc         1 HW1       0.064700
     39 H11         -2.9140     1.4850    -1.5980 h1         1 HW1       0.058200
     40 H12         -4.6880     1.5590    -1.4800 h1         1 HW1       0.058200
     41 H13         -4.5390     3.6320    -0.3580 hn         1 HW1       0.397000
     42 H15         -1.6160     3.7130    -0.3970 h1         1 HW1       0.049200
     43 H16         -2.7320     4.3740     0.8060 h1         1 HW1       0.049200
     44 H17         -2.4450     2.3270     2.0640 h1         1 HW1       0.043700
     45 H18          0.1900     3.0250     0.6850 h1         1 HW1       0.018200
     46 H19          0.0470     2.0330     2.1580 h1         1 HW1       0.018200
     47 H20          0.9710     0.0670     0.9120 hc         1 HW1       0.052700
     48 H21          1.1080     1.0490    -0.5490 hc         1 HW1       0.052700
     49 H22          2.7310     2.5670     0.6250 hc         1 HW1       0.037200
     50 H23          2.5940     1.5860     2.0840 hc         1 HW1       0.037200
     51 H24          3.5110    -0.3960     0.8390 hc         1 HW1       0.047200
     52 H25          3.6440     0.5830    -0.6220 hc         1 HW1       0.047200
     53 H26          5.2640     2.1070     0.5530 hc         1 HW1       0.053200
     54 H27          5.1260     1.1410     2.0100 hc         1 HW1       0.053200
     55 H28          7.5170    -2.3730     2.5940 hn         1 HW1       0.469000
     56 H29          8.5700    -3.1790     1.4920 hn         1 HW1       0.469000
     57 H30          8.9670    -2.1910    -0.7710 ha         1 HW1       0.118000
     58 H31          6.1640     0.9830    -1.6160 ha         1 HW1       0.121000
     59 H32          8.9340     0.1930    -2.9490 hc         1 HW1       0.046033
     60 H33          8.5100    -1.5130    -3.1720 hc         1 HW1       0.046033
     61 H34          7.3190    -0.2550    -3.5280 hc         1 HW1       0.046033
@<TRIPOS>BOND
     1     1     2 1   
     2     1    29 1   
     3     1    30 1   
     4     2     3 ar  
     5     2     7 ar  
     6     3     4 ar  
     7     3    31 1   
     8     4     5 1   
     9     4     6 ar  
    10     5    32 1   
    11     5    33 1   
    12     5    34 1   
    13     6     8 ar  
    14     6    35 1   
    15     7     8 ar  
    16     8     9 1   
    17     9    10 1   
    18     9    36 1   
    19     9    37 1   
    20    10    11 1   
    21    10    14 1   
    22    10    38 1   
    23    11    12 1   
    24    11    39 1   
    25    11    40 1   
    26    12    13 1   
    27    12    41 1   
    28    13    14 1   
    29    13    42 1   
    30    13    43 1   
    31    14    15 1   
    32    14    44 1   
    33    15    16 1   
    34    16    17 1   
    35    16    45 1   
    36    16    46 1   
    37    17    18 1   
    38    17    47 1   
    39    17    48 1   
    40    18    19 1   
    41    18    49 1   
    42    18    50 1   
    43    19    20 1   
    44    19    51 1   
    45    19    52 1   
    46    20    21 1   
    47    20    53 1   
    48    20    54 1   
    49    21    22 ar  
    50    21    27 ar  
    51    22    23 ar  
    52    23    24 1   
    53    23    25 ar  
    54    24    55 1   
    55    24    56 1   
    56    25    26 ar  
    57    25    57 1   
    58    26    27 ar  
    59    26    28 1   
    60    27    58 1   
    61    28    59 1   
    62    28    60 1   
    63    28    61 1   
@<TRIPOS>SUBSTRUCTURE
     1 HW1         1 TEMP              0 ****  ****    0 ROOT
