@<TRIPOS>MOLECULE
HW2
   53    56     1     0     0
SMALL
No Charge or Current Charge


@<TRIPOS>ATOM
      1 C4           3.7100    -2.6990     0.9760 c6         1 HW2       0.147300
      2 C5           2.2230    -2.7740     1.4420 c6         1 HW2       0.138300
      3 C6           2.0770    -3.0670     2.9630 c3         1 HW2       0.174600
      4 C3           3.7600    -2.2740    -0.5220 c6         1 HW2       0.138300
      5 CBA          0.3590     2.8050    -1.5850 ca         1 HW2      -0.096000
      6 CAY          1.1690     3.9250    -1.8500 ca         1 HW2       0.032100
      7 OAZ          1.7490     4.0900    -3.0840 oh         1 HW2      -0.557100
      8 CAW          1.3800     4.8890    -0.8430 ca         1 HW2       0.153100
      9 OAX          2.1650     5.9710    -1.1070 oh         1 HW2      -0.524100
     10 CAV          0.7810     4.7390     0.4160 ca         1 HW2      -0.141000
     11 CAU         -0.0310     3.6220     0.6770 ca         1 HW2      -0.064000
     12 CAT         -0.2400     2.6430    -0.3170 ca         1 HW2      -0.083800
     13 CAH         -1.0990     1.4890    -0.0410 cc         1 HW2       0.231900
     14 OAI         -2.3230     1.7510     0.5470 os         1 HW2      -0.205200
     15 CAJ         -3.2610     0.7420     0.4550 ca         1 HW2       0.237100
     16 CAK         -4.6020     1.1080     0.6230 ca         1 HW2      -0.232000
     17 CAL         -5.6100     0.1420     0.6060 ca         1 HW2       0.247100
     18 OAM         -6.9060     0.5170     0.7620 oh         1 HW2      -0.518100
     19 CAN         -5.2830    -1.2040     0.4400 ca         1 HW2      -0.307000
     20 CAO         -3.9460    -1.5790     0.2930 ca         1 HW2       0.290100
     21 OAP         -3.6530    -2.8930     0.1460 oh         1 HW2      -0.535100
     22 CAQ         -2.9260    -0.6110     0.3000 ca         1 HW2      -0.381600
     23 CAR         -1.4980    -0.9640     0.1380 c          1 HW2       0.602900
     24 OAS         -1.1560    -2.1420     0.1430 o          1 HW2      -0.593100
     25 CAG         -0.5980     0.1960    -0.0930 cd         1 HW2      -0.118100
     26 O1           0.7620     0.0760    -0.3600 os         1 HW2      -0.324100
     27 C1           1.5120    -1.1470    -0.2110 c6         1 HW2       0.353300
     28 O5           1.5530    -1.5100     1.1880 os         1 HW2      -0.487000
     29 O6           0.7480    -2.7560     3.4100 oh         1 HW2      -0.715000
     30 O4           4.3930    -3.9530     1.1550 oh         1 HW2      -0.715000
     31 O3           5.1200    -2.1230    -0.9660 oh         1 HW2      -0.664000
     32 C2           2.9750    -0.9470    -0.7290 c6         1 HW2       0.122300
     33 O2           3.0290    -0.5410    -2.1190 oh         1 HW2      -0.720000
     34 H1           4.2120    -1.9180     1.5690 h1         1 HW2       0.053700
     35 H2           1.7020    -3.5670     0.8860 h1         1 HW2       0.063700
     36 H3           2.3200    -4.1220     3.1510 h1         1 HW2       0.058200
     37 H4           2.8110    -2.4560     3.5070 h1         1 HW2       0.058200
     38 H5           3.2630    -3.0550    -1.1170 h1         1 HW2       0.054700
     39 H7           1.4570     3.3660    -3.6820 ho         1 HW2       0.480000
     40 H8           2.4640     5.8620    -2.0380 ho         1 HW2       0.488000
     41 H9           0.9430     5.4880     1.1870 ha         1 HW2       0.141000
     42 H10         -0.4950     3.5120     1.6560 ha         1 HW2       0.133000
     43 H11         -4.8610     2.1530     0.7680 ha         1 HW2       0.155000
     44 H12         -7.4600    -0.2910     0.7260 ho         1 HW2       0.479000
     45 H13         -6.0560    -1.9670     0.4300 ha         1 HW2       0.139000
     46 H14         -2.6620    -2.9320     0.1180 ho         1 HW2       0.524000
     47 H15          1.0380    -1.9460    -0.7990 h2         1 HW2       0.052700
     48 H16          0.4510    -2.0590     2.7740 ho         1 HW2       0.512000
     49 H17          5.1950    -3.8880     0.5800 ho         1 HW2       0.526000
     50 H18          5.0570    -1.5610    -1.7740 ho         1 HW2       0.468000
     51 H19          3.4400    -0.1730    -0.1010 h1         1 HW2       0.060700
     52 H20          2.4480     0.2530    -2.2020 ho         1 HW2       0.535000
     53 H6           0.1840     2.0600    -2.3580 ha         1 HW2       0.134000
@<TRIPOS>BOND
     1     1     2 1   
     2     1     4 1   
     3     1    30 1   
     4     1    34 1   
     5     2     3 1   
     6     2    28 1   
     7     2    35 1   
     8     3    29 1   
     9     3    36 1   
    10     3    37 1   
    11     4    31 1   
    12     4    32 1   
    13     4    38 1   
    14     5     6 ar  
    15     5    12 ar  
    16     5    53 1   
    17     6     7 1   
    18     6     8 ar  
    19     7    39 1   
    20     8     9 1   
    21     8    10 ar  
    22     9    40 1   
    23    10    11 ar  
    24    10    41 1   
    25    11    12 ar  
    26    11    42 1   
    27    12    13 1   
    28    13    14 1   
    29    13    25 2   
    30    14    15 1   
    31    15    16 ar  
    32    15    22 ar  
    33    16    17 ar  
    34    16    43 1   
    35    17    18 1   
    36    17    19 ar  
    37    18    44 1   
    38    19    20 ar  
    39    19    45 1   
    40    20    21 1   
    41    20    22 ar  
    42    21    46 1   
    43    22    23 1   
    44    23    24 2   
    45    23    25 1   
    46    25    26 1   
    47    26    27 1   
    48    27    28 1   
    49    27    32 1   
    50    27    47 1   
    51    29    48 1   
    52    30    49 1   
    53    31    50 1   
    54    32    33 1   
    55    32    51 1   
    56    33    52 1   
@<TRIPOS>SUBSTRUCTURE
     1 HW2         1 TEMP              0 ****  ****    0 ROOT
