@<TRIPOS>MOLECULE
HW2
   53    56     1     0     0
SMALL
abcg2


@<TRIPOS>ATOM
      1 C4           3.7340    -1.8760     0.5700 c6         1 HW2       0.147300
      2 C5           2.6270    -1.1420     1.3220 c6         1 HW2       0.138300
      3 C6           3.1620    -0.1080     2.2990 c3         1 HW2       0.174600
      4 C3           3.1180    -2.7840    -0.4920 c6         1 HW2       0.138300
      5 CBA          0.8980     2.4240    -0.7030 ca         1 HW2      -0.096000
      6 CAY          1.8170     3.3900    -0.3460 ca         1 HW2       0.032100
      7 OAZ          2.8050     3.8250    -1.1580 oh         1 HW2      -0.557100
      8 CAW          1.7610     3.9850     0.9240 ca         1 HW2       0.153100
      9 OAX          2.6470     4.9190     1.3040 oh         1 HW2      -0.524100
     10 CAV          0.7630     3.6000     1.8060 ca         1 HW2      -0.141000
     11 CAU         -0.1710     2.6410     1.4420 ca         1 HW2      -0.064000
     12 CAT         -0.1030     2.0340     0.1900 ca         1 HW2      -0.083800
     13 CAH         -1.0770     1.0030    -0.1690 cc         1 HW2       0.231900
     14 OAI         -2.3050     1.2810     0.3010 os         1 HW2      -0.205200
     15 CAJ         -3.3510     0.4510     0.1180 ca         1 HW2       0.237100
     16 CAK         -4.5560     0.8280     0.6770 ca         1 HW2      -0.232000
     17 CAL         -5.6500    -0.0130     0.4830 ca         1 HW2       0.247100
     18 OAM         -6.8090     0.3660     1.0280 oh         1 HW2      -0.518100
     19 CAN         -5.5400    -1.1980    -0.2500 ca         1 HW2      -0.307000
     20 CAO         -4.3230    -1.5560    -0.8000 ca         1 HW2       0.290100
     21 OAP         -4.2270    -2.6870    -1.4910 oh         1 HW2      -0.535100
     22 CAQ         -3.1930    -0.7240    -0.6200 ca         1 HW2      -0.381600
     23 CAR         -1.9060    -1.0660    -1.1690 c          1 HW2       0.602900
     24 OAS         -1.7110    -2.0940    -1.8320 o          1 HW2      -0.593100
     25 CAG         -0.8410    -0.1300    -0.8740 cd         1 HW2      -0.118100
     26 O1           0.3980    -0.4340    -1.3430 os         1 HW2      -0.324100
     27 C1           1.1690    -1.2610    -0.5180 c6         1 HW2       0.353300
     28 O5           1.8210    -0.4380     0.3980 os         1 HW2      -0.487000
     29 O6           2.1340     0.5570     2.9900 oh         1 HW2      -0.715000
     30 O4           4.4800    -2.6090     1.5080 oh         1 HW2      -0.715000
     31 O3           4.1760    -3.3700    -1.2110 oh         1 HW2      -0.664000
     32 C2           2.1780    -1.9920    -1.3950 c6         1 HW2       0.122300
     33 O2           1.5560    -2.9020    -2.2620 oh         1 HW2      -0.720000
     34 H1           4.3620    -1.1260     0.0620 h1         1 HW2       0.053700
     35 H2           2.0180    -1.8780     1.8720 h1         1 HW2       0.063700
     36 H3           3.7800    -0.6100     3.0440 h1         1 HW2       0.058200
     37 H4           3.8100     0.5940     1.7570 h1         1 HW2       0.058200
     38 H5           2.5240    -3.5550     0.0260 h1         1 HW2       0.054700
     39 H7           2.8060     3.3430    -1.9920 ho         1 HW2       0.480000
     40 H8           3.2850     5.0920     0.6000 ho         1 HW2       0.488000
     41 H9           0.7180     4.0570     2.7860 ha         1 HW2       0.141000
     42 H10         -0.9350     2.3620     2.1550 ha         1 HW2       0.133000
     43 H11         -4.6480     1.7450     1.2430 ha         1 HW2       0.155000
     44 H12         -7.5050    -0.2740     0.8400 ho         1 HW2       0.479000
     45 H13         -6.4020    -1.8400    -0.3910 ha         1 HW2       0.139000
     46 H14         -3.2950    -2.7710    -1.8030 ho         1 HW2       0.524000
     47 H15          0.5290    -1.9910     0.0070 h2         1 HW2       0.052700
     48 H16          1.6160     1.0610     2.3530 ho         1 HW2       0.512000
     49 H17          5.1760    -3.0800     1.0370 ho         1 HW2       0.526000
     50 H18          3.8240    -4.0890    -1.7450 ho         1 HW2       0.468000
     51 H19          2.7600    -1.2360    -1.9450 h1         1 HW2       0.060700
     52 H20          0.9210    -2.4280    -2.8110 ho         1 HW2       0.535000
     53 H6           0.9610     1.9840    -1.6890 ha         1 HW2       0.134000
@<TRIPOS>BOND
     1     1     2 1   
     2     1     4 1   
     3     1    30 1   
     4     1    34 1   
     5     2     3 1   
     6     2    28 1   
     7     2    35 1   
     8     3    29 1   
     9     3    36 1   
    10     3    37 1   
    11     4    31 1   
    12     4    32 1   
    13     4    38 1   
    14     5     6 ar  
    15     5    12 ar  
    16     5    53 1   
    17     6     7 1   
    18     6     8 ar  
    19     7    39 1   
    20     8     9 1   
    21     8    10 ar  
    22     9    40 1   
    23    10    11 ar  
    24    10    41 1   
    25    11    12 ar  
    26    11    42 1   
    27    12    13 1   
    28    13    14 1   
    29    13    25 2   
    30    14    15 1   
    31    15    16 ar  
    32    15    22 ar  
    33    16    17 ar  
    34    16    43 1   
    35    17    18 1   
    36    17    19 ar  
    37    18    44 1   
    38    19    20 ar  
    39    19    45 1   
    40    20    21 1   
    41    20    22 ar  
    42    21    46 1   
    43    22    23 1   
    44    23    24 2   
    45    23    25 1   
    46    25    26 1   
    47    26    27 1   
    48    27    28 1   
    49    27    32 1   
    50    27    47 1   
    51    29    48 1   
    52    30    49 1   
    53    31    50 1   
    54    32    33 1   
    55    32    51 1   
    56    33    52 1   
@<TRIPOS>SUBSTRUCTURE
     1 HW2         1 TEMP              0 ****  ****    0 ROOT
