@<TRIPOS>MOLECULE
HW3
   58    60     1     0     0
SMALL
No Charge or Current Charge


@<TRIPOS>ATOM
      1 C1          14.5800     3.6660    -1.5010 c          1 HW3       0.718000
      2 C10         10.5910     1.1030    -5.4770 ca         1 HW3      -0.212000
      3 C11         11.4090     1.2360    -4.3460 ca         1 HW3      -0.060000
      4 C12          9.4580     4.7850    -5.9470 c          1 HW3       0.623700
      5 C13          7.9660     5.8230    -7.6920 c3         1 HW3       0.157300
      6 C14          8.8100     6.3980    -8.8200 ca         1 HW3      -0.077300
      7 C15          8.6690     5.9090   -10.1340 ca         1 HW3      -0.111000
      8 C16          9.4540     6.4340   -11.1770 ca         1 HW3      -0.096000
      9 C17         10.3830     7.4550   -10.9140 ca         1 HW3       0.050100
     10 C18         10.5380     7.9370    -9.5950 ca         1 HW3       0.159000
     11 C19          9.7530     7.4120    -8.5560 ca         1 HW3      -0.109000
     12 C2          13.8230     3.3730    -2.8190 c3         1 HW3      -0.190700
     13 C3          14.7060     2.6020    -3.8410 c3         1 HW3      -0.048400
     14 C30          8.9250     0.8130    -7.8090 c3         1 HW3       0.158900
     15 C36         11.1860     9.2850   -12.2790 ca         1 HW3       0.125100
     16 C37         10.0960    10.1420   -12.0130 ca         1 HW3      -0.128000
     17 C38         10.1700    11.5020   -12.3660 ca         1 HW3      -0.122500
     18 C39         11.3260    12.0010   -12.9880 ca         1 HW3       0.133000
     19 C4          16.0150     3.3280    -4.2140 c3         1 HW3      -0.078100
     20 C40         12.4080    11.1500   -13.2650 ca         1 HW3      -0.122500
     21 C41         12.3350     9.7890   -12.9120 ca         1 HW3      -0.128000
     22 C5          12.4840     2.6440    -2.5230 c3         1 HW3      -0.019100
     23 C6          11.5900     2.4920    -3.7510 ca         1 HW3      -0.080300
     24 C7          10.9410     3.6130    -4.2970 ca         1 HW3      -0.028000
     25 C8          10.1080     3.5070    -5.4390 ca         1 HW3      -0.186600
     26 C9           9.9350     2.2250    -6.0350 ca         1 HW3       0.137100
     27 F42         11.4490     8.8970    -9.3120 f          1 HW3      -0.163000
     28 F43         11.3950    13.3070   -13.3280 f          1 HW3      -0.186000
     29 N35          8.6390     4.6990    -7.0440 ns         1 HW3      -0.506900
     30 O1           9.6520     5.8650    -5.4020 o          1 HW3      -0.615100
     31 O33         14.9510     2.7240    -0.8140 o          1 HW3      -0.732500
     32 O34         14.7570     4.8340    -1.1870 o          1 HW3      -0.732500
     33 O35         11.1420     7.9460   -11.9550 os         1 HW3      -0.232200
     34 O37          9.1330     2.0780    -7.1530 os         1 HW3      -0.376100
     35 H1          10.4820     0.1120    -5.9060 ha         1 HW3       0.105000
     36 H2          11.9070     0.3590    -3.9370 ha         1 HW3       0.115000
     37 H3           7.7470     6.6040    -6.9510 h1         1 HW3       0.052700
     38 H4           7.0070     5.4710    -8.0930 h1         1 HW3       0.052700
     39 H5           7.9520     5.1200   -10.3480 ha         1 HW3       0.115000
     40 H6           9.3400     6.0520   -12.1880 ha         1 HW3       0.127000
     41 H7           9.8830     7.7890    -7.5450 ha         1 HW3       0.150000
     42 H8          13.5740     4.3400    -3.2720 hc         1 HW3       0.037700
     43 H9          14.1360     2.4380    -4.7640 hc         1 HW3       0.015200
     44 H10         14.9500     1.6090    -3.4430 hc         1 HW3       0.015200
     45 H11          8.2580     0.9390    -8.6710 h1         1 HW3       0.036033
     46 H12          9.8750     0.4020    -8.1740 h1         1 HW3       0.036033
     47 H13          8.4640     0.0890    -7.1260 h1         1 HW3       0.036033
     48 H14          9.1940     9.7590   -11.5410 ha         1 HW3       0.132500
     49 H15          9.3340    12.1670   -12.1620 ha         1 HW3       0.129000
     50 H16         16.5630     2.7570    -4.9730 hc         1 HW3       0.022367
     51 H17         15.8040     4.3230    -4.6210 hc         1 HW3       0.022367
     52 H18         16.6670     3.4400    -3.3390 hc         1 HW3       0.022367
     53 H19         13.2980    11.5430   -13.7500 ha         1 HW3       0.129000
     54 H20         13.1700     9.1260   -13.1240 ha         1 HW3       0.132500
     55 H21         11.9410     3.2040    -1.7510 hc         1 HW3       0.054700
     56 H22         12.6970     1.6610    -2.0820 hc         1 HW3       0.054700
     57 H23         11.0920     4.5800    -3.8210 ha         1 HW3       0.152000
     58 H24          8.5360     3.7730    -7.4420 hn         1 HW3       0.334500
@<TRIPOS>BOND
     1     1    12 1   
     2     1    31 1   
     3     1    32 1   
     4     2     3 ar  
     5     2    26 ar  
     6     2    35 1   
     7     3    23 ar  
     8     3    36 1   
     9     4    25 1   
    10     4    29 1   
    11     4    30 2   
    12     5     6 1   
    13     5    29 1   
    14     5    37 1   
    15     5    38 1   
    16     6     7 ar  
    17     6    11 ar  
    18     7     8 ar  
    19     7    39 1   
    20     8     9 ar  
    21     8    40 1   
    22     9    10 ar  
    23     9    33 1   
    24    10    11 ar  
    25    10    27 1   
    26    11    41 1   
    27    12    13 1   
    28    12    22 1   
    29    12    42 1   
    30    13    19 1   
    31    13    43 1   
    32    13    44 1   
    33    14    34 1   
    34    14    45 1   
    35    14    46 1   
    36    14    47 1   
    37    15    16 ar  
    38    15    21 ar  
    39    15    33 1   
    40    16    17 ar  
    41    16    48 1   
    42    17    18 ar  
    43    17    49 1   
    44    18    20 ar  
    45    18    28 1   
    46    19    50 1   
    47    19    51 1   
    48    19    52 1   
    49    20    21 ar  
    50    20    53 1   
    51    21    54 1   
    52    22    23 1   
    53    22    55 1   
    54    22    56 1   
    55    23    24 ar  
    56    24    25 ar  
    57    24    57 1   
    58    25    26 ar  
    59    26    34 1   
    60    29    58 1   
@<TRIPOS>SUBSTRUCTURE
     1 HW3         1 TEMP              0 ****  ****    0 ROOT
