@<TRIPOS>MOLECULE
HW3
   58    60     1     0     0
SMALL
bcc


@<TRIPOS>ATOM
      1 C1          14.7550     4.1790    -2.4030 c          1 HW3       0.928600
      2 C10         10.2450     1.0290    -5.1280 ca         1 HW3      -0.230000
      3 C11         11.1940     1.3430    -4.1660 ca         1 HW3      -0.078000
      4 C12          9.2030     4.5860    -6.1330 c          1 HW3       0.690700
      5 C13          7.9950     5.5470    -8.0160 c3         1 HW3       0.157300
      6 C14          9.0560     6.3190    -8.7630 ca         1 HW3      -0.077300
      7 C15          9.6490     5.7760    -9.8990 ca         1 HW3      -0.129000
      8 C16         10.6310     6.4700   -10.5900 ca         1 HW3      -0.114000
      9 C17         11.0440     7.7150   -10.1440 ca         1 HW3       0.050100
     10 C18         10.4570     8.2450    -9.0040 ca         1 HW3       0.123900
     11 C19          9.4720     7.5690    -8.3160 ca         1 HW3      -0.127000
     12 C2          13.7970     3.6420    -3.4880 c3         1 HW3      -0.190700
     13 C3          14.5050     2.6310    -4.3890 c3         1 HW3      -0.048400
     14 C30          8.3400     0.4380    -7.0880 c3         1 HW3       0.135700
     15 C36         11.7020     9.4980   -11.5230 ca         1 HW3       0.125100
     16 C37         10.4070     9.7690   -11.9470 ca         1 HW3      -0.146000
     17 C38         10.1540    10.9000   -12.7120 ca         1 HW3      -0.140500
     18 C39         11.1980    11.7380   -13.0430 ca         1 HW3       0.097900
     19 C4          15.7260     3.1970    -5.1040 c3         1 HW3      -0.078100
     20 C40         12.4930    11.4790   -12.6330 ca         1 HW3      -0.140500
     21 C41         12.7430    10.3520   -11.8670 ca         1 HW3      -0.146000
     22 C5          12.5480     3.0250    -2.8380 c3         1 HW3      -0.019100
     23 C6          11.4890     2.6600    -3.8410 ca         1 HW3      -0.080300
     24 C7          10.7880     3.6520    -4.5150 ca         1 HW3      -0.046000
     25 C8           9.8380     3.3830    -5.4960 ca         1 HW3      -0.186600
     26 C9           9.5650     2.0360    -5.8050 ca         1 HW3       0.137100
     27 F42         10.8640     9.4470    -8.5750 f          1 HW3      -0.127900
     28 F43         10.9500    12.8340   -13.7800 f          1 HW3      -0.150900
     29 N35          8.5380     4.4230    -7.2880 ns         1 HW3      -0.573900
     30 O1           9.3210     5.6910    -5.6150 o          1 HW3      -0.615100
     31 O33         15.1670     3.3440    -1.5700 o          1 HW3      -0.837800
     32 O34         15.0440     5.3920    -2.4430 o          1 HW3      -0.837800
     33 O35         12.0370     8.3930   -10.7900 os         1 HW3      -0.232200
     34 O37          8.6370     1.7800    -6.7480 os         1 HW3      -0.352900
     35 H1          10.0480    -0.0130    -5.3410 ha         1 HW3       0.123000
     36 H2          11.7120     0.5350    -3.6630 ha         1 HW3       0.133000
     37 H3           7.4570     6.2080    -7.3370 h1         1 HW3       0.052700
     38 H4           7.2670     5.1480    -8.7220 h1         1 HW3       0.052700
     39 H5           9.3350     4.8050   -10.2610 ha         1 HW3       0.133000
     40 H6          11.0820     6.0500   -11.4800 ha         1 HW3       0.145000
     41 H7           9.0350     8.0150    -7.4310 ha         1 HW3       0.168000
     42 H8          13.4740     4.4870    -4.1090 hc         1 HW3       0.037700
     43 H9          13.8020     2.2560    -5.1390 hc         1 HW3       0.015200
     44 H10         14.8000     1.7630    -3.7920 hc         1 HW3       0.015200
     45 H11          7.5790     0.4820    -7.8620 h1         1 HW3       0.036033
     46 H12          9.2150    -0.0850    -7.4800 h1         1 HW3       0.036033
     47 H13          7.9450    -0.1170    -6.2340 h1         1 HW3       0.036033
     48 H14          9.5850     9.1110   -11.6990 ha         1 HW3       0.150500
     49 H15          9.1480    11.1180   -13.0450 ha         1 HW3       0.147000
     50 H16         16.1530     2.4660    -5.7920 hc         1 HW3       0.022367
     51 H17         15.4670     4.0850    -5.6850 hc         1 HW3       0.022367
     52 H18         16.5120     3.4810    -4.4030 hc         1 HW3       0.022367
     53 H19         13.3000    12.1490   -12.9010 ha         1 HW3       0.147000
     54 H20         13.7510    10.1370   -11.5340 ha         1 HW3       0.150500
     55 H21         12.1300     3.7360    -2.1190 hc         1 HW3       0.054700
     56 H22         12.8400     2.1400    -2.2680 hc         1 HW3       0.054700
     57 H23         10.9910     4.6890    -4.2770 ha         1 HW3       0.170000
     58 H24          8.4660     3.5050    -7.6960 hn         1 HW3       0.334500
@<TRIPOS>BOND
     1     1    12 1   
     2     1    31 1   
     3     1    32 1   
     4     2     3 ar  
     5     2    26 ar  
     6     2    35 1   
     7     3    23 ar  
     8     3    36 1   
     9     4    25 1   
    10     4    29 1   
    11     4    30 2   
    12     5     6 1   
    13     5    29 1   
    14     5    37 1   
    15     5    38 1   
    16     6     7 ar  
    17     6    11 ar  
    18     7     8 ar  
    19     7    39 1   
    20     8     9 ar  
    21     8    40 1   
    22     9    10 ar  
    23     9    33 1   
    24    10    11 ar  
    25    10    27 1   
    26    11    41 1   
    27    12    13 1   
    28    12    22 1   
    29    12    42 1   
    30    13    19 1   
    31    13    43 1   
    32    13    44 1   
    33    14    34 1   
    34    14    45 1   
    35    14    46 1   
    36    14    47 1   
    37    15    16 ar  
    38    15    21 ar  
    39    15    33 1   
    40    16    17 ar  
    41    16    48 1   
    42    17    18 ar  
    43    17    49 1   
    44    18    20 ar  
    45    18    28 1   
    46    19    50 1   
    47    19    51 1   
    48    19    52 1   
    49    20    21 ar  
    50    20    53 1   
    51    21    54 1   
    52    22    23 1   
    53    22    55 1   
    54    22    56 1   
    55    23    24 ar  
    56    24    25 ar  
    57    24    57 1   
    58    25    26 ar  
    59    26    34 1   
    60    29    58 1   
@<TRIPOS>SUBSTRUCTURE
     1 HW3         1 TEMP              0 ****  ****    0 ROOT
