@<TRIPOS>MOLECULE
HW4
   57    59     1     0     0
SMALL
abcg2


@<TRIPOS>ATOM
      1 F23         -8.5950    -0.5940     2.7130 f          1 HW4      -0.181000
      2 C23         -8.0330    -0.0130     1.6390 ca         1 HW4       0.172000
      3 C24         -8.4760     1.2360     1.2490 ca         1 HW4      -0.154000
      4 C25         -7.8860     1.8140     0.1330 ca         1 HW4      -0.083000
      5 C26         -6.8840     1.1510    -0.5620 ca         1 HW4      -0.126000
      6 C22         -7.0360    -0.6920     0.9650 ca         1 HW4      -0.150000
      7 C21         -6.4490    -0.1090    -0.1550 ca         1 HW4      -0.049300
      8 C14         -5.3320    -0.8070    -0.8780 c3         1 HW4      -0.034100
      9 C13         -3.9570    -0.3730    -0.3700 c3         1 HW4      -0.072400
     10 C12         -2.8210    -1.0850    -1.0910 c3         1 HW4      -0.075400
     11 C11         -1.4460    -0.6800    -0.5740 c3         1 HW4      -0.080400
     12 C10         -0.3310    -1.3980    -1.3070 c3         1 HW4       0.162600
     13 O09          0.9030    -1.0610    -0.7210 os         1 HW4      -0.451000
     14 C3           2.0270    -1.5990    -1.3810 c5         1 HW4       0.149300
     15 C2           2.2350    -3.0970    -1.0650 c5         1 HW4       0.111800
     16 N1           3.2770    -3.1950    -0.0330 n7         1 HW4      -0.834400
     17 C5           3.5720    -1.8350     0.4060 c5         1 HW4       0.146800
     18 C4           3.2890    -0.9500    -0.8100 c5         1 HW4      -0.085700
     19 C08          3.1860     0.5500    -0.5440 c3         1 HW4      -0.109700
     20 C06          4.4930     1.1110    -0.0570 ca         1 HW4       0.396300
     21 N01          4.6980     1.0840     1.2610 nb         1 HW4      -0.749000
     22 C02          5.8550     1.5350     1.7380 ca         1 HW4       0.599900
     23 N02          6.0490     1.4380     3.0870 nv         1 HW4      -1.055900
     24 C03          6.8600     2.0520     0.9050 ca         1 HW4      -0.234000
     25 C04          6.6500     2.0830    -0.4600 ca         1 HW4       0.000700
     26 C05          5.4330     1.5980    -0.9490 ca         1 HW4      -0.220000
     27 C07          7.6970     2.6060    -1.3950 c3         1 HW4      -0.053800
     28 H1          -9.2590     1.7420     1.7980 ha         1 HW4       0.131000
     29 H2          -8.2150     2.7910    -0.1950 ha         1 HW4       0.116000
     30 H3          -6.4380     1.6160    -1.4330 ha         1 HW4       0.116000
     31 H4          -6.7230    -1.6720     1.3060 ha         1 HW4       0.130000
     32 H5          -5.4330    -1.8890    -0.7620 hc         1 HW4       0.048200
     33 H6          -5.4020    -0.5990    -1.9500 hc         1 HW4       0.048200
     34 H7          -3.8500     0.7100    -0.4930 hc         1 HW4       0.045700
     35 H8          -3.8890    -0.5680     0.7050 hc         1 HW4       0.045700
     36 H9          -2.9440    -2.1680    -0.9810 hc         1 HW4       0.037200
     37 H10         -2.8880    -0.8800    -2.1650 hc         1 HW4       0.037200
     38 H11         -1.3160     0.4020    -0.6760 hc         1 HW4       0.054200
     39 H12         -1.3790    -0.9070     0.4950 hc         1 HW4       0.054200
     40 H13         -0.5060    -2.4830    -1.2660 h1         1 HW4       0.017700
     41 H14         -0.3390    -1.1230    -2.3720 h1         1 HW4       0.017700
     42 H15          1.9360    -1.4250    -2.4620 h1         1 HW4       0.038700
     43 H16          1.2970    -3.5430    -0.7200 h1         1 HW4       0.049700
     44 H17          2.5320    -3.6470    -1.9590 h1         1 HW4       0.049700
     45 H18          4.1120    -3.5780    -0.4550 hn         1 HW4       0.395000
     46 H20          2.9220    -1.5480     1.2390 h1         1 HW4       0.068200
     47 H21          4.5980    -1.7660     0.7650 h1         1 HW4       0.068200
     48 H22          4.0880    -1.1210    -1.5410 hc         1 HW4       0.045700
     49 H23          2.8890     1.0600    -1.4640 hc         1 HW4       0.065700
     50 H24          2.4160     0.7450     0.2030 hc         1 HW4       0.065700
     51 H25          5.2220     1.3200     3.6480 hn         1 HW4       0.469000
     52 H26          6.7450     2.0350     3.5000 hn         1 HW4       0.469000
     53 H27          7.7840     2.4230     1.3330 ha         1 HW4       0.118000
     54 H28          5.2210     1.6090    -2.0110 ha         1 HW4       0.119000
     55 H29          8.1880     1.7820    -1.9170 hc         1 HW4       0.046033
     56 H30          7.2580     3.2500    -2.1580 hc         1 HW4       0.046033
     57 H31          8.4650     3.1690    -0.8690 hc         1 HW4       0.046033
@<TRIPOS>BOND
     1     1     2 1   
     2     2     3 ar  
     3     2     6 ar  
     4     3     4 ar  
     5     3    28 1   
     6     4     5 ar  
     7     4    29 1   
     8     5     7 ar  
     9     5    30 1   
    10     6     7 ar  
    11     6    31 1   
    12     7     8 1   
    13     8     9 1   
    14     8    32 1   
    15     8    33 1   
    16     9    10 1   
    17     9    34 1   
    18     9    35 1   
    19    10    11 1   
    20    10    36 1   
    21    10    37 1   
    22    11    12 1   
    23    11    38 1   
    24    11    39 1   
    25    12    13 1   
    26    12    40 1   
    27    12    41 1   
    28    13    14 1   
    29    14    15 1   
    30    14    18 1   
    31    14    42 1   
    32    15    16 1   
    33    15    43 1   
    34    15    44 1   
    35    16    17 1   
    36    16    45 1   
    37    17    18 1   
    38    17    46 1   
    39    17    47 1   
    40    18    19 1   
    41    18    48 1   
    42    19    20 1   
    43    19    49 1   
    44    19    50 1   
    45    20    21 ar  
    46    20    26 ar  
    47    21    22 ar  
    48    22    23 1   
    49    22    24 ar  
    50    23    51 1   
    51    23    52 1   
    52    24    25 ar  
    53    24    53 1   
    54    25    26 ar  
    55    25    27 1   
    56    26    54 1   
    57    27    55 1   
    58    27    56 1   
    59    27    57 1   
@<TRIPOS>SUBSTRUCTURE
     1 HW4         1 TEMP              0 ****  ****    0 ROOT
