@<TRIPOS>MOLECULE
HW4
   57    59     1     0     0
SMALL
No Charge or Current Charge


@<TRIPOS>ATOM
      1 F23         -8.4730    -0.5890     2.9860 f          1 HW4      -0.181000
      2 C23         -7.9810    -0.0050     1.8720 ca         1 HW4       0.172000
      3 C24         -8.4540     1.2560     1.4780 ca         1 HW4      -0.154000
      4 C25         -7.9400     1.8640     0.3200 ca         1 HW4      -0.083000
      5 C26         -6.9550     1.2070    -0.4390 ca         1 HW4      -0.126000
      6 C22         -6.9980    -0.6630     1.1160 ca         1 HW4      -0.150000
      7 C21         -6.4800    -0.0610    -0.0470 ca         1 HW4      -0.049300
      8 C14         -5.4100    -0.7680    -0.8670 c3         1 HW4      -0.034100
      9 C13         -3.9860    -0.4320    -0.3750 c3         1 HW4      -0.072400
     10 C12         -2.8790    -1.1360    -1.1900 c3         1 HW4      -0.075400
     11 C11         -1.4560    -0.7970    -0.6950 c3         1 HW4      -0.080400
     12 C10         -0.3540    -1.5010    -1.5100 c3         1 HW4       0.162600
     13 O09          0.9130    -1.1030    -0.9590 os         1 HW4      -0.451000
     14 C3           2.1090    -1.6330    -1.5920 c5         1 HW4       0.149300
     15 C2           2.2710    -3.1520    -1.2090 c5         1 HW4       0.111800
     16 N1           3.4480    -3.2420    -0.2950 n7         1 HW4      -0.834400
     17 C5           3.5280    -1.8930     0.3120 c5         1 HW4       0.146800
     18 C4           3.3560    -0.9740    -0.9230 c5         1 HW4      -0.085700
     19 C08          3.2530     0.5450    -0.6140 c3         1 HW4      -0.109700
     20 C06          4.5340     1.1370    -0.0430 ca         1 HW4       0.396300
     21 N01          4.5670     1.3440     1.2930 nb         1 HW4      -0.749000
     22 C02          5.6850     1.8460     1.7940 ca         1 HW4       0.599900
     23 N02          5.5910     2.0090     3.1150 nv         1 HW4      -1.055900
     24 C03          6.8200     2.1810     1.0540 ca         1 HW4      -0.234000
     25 C04          6.7980     1.9720    -0.3330 ca         1 HW4       0.000700
     26 C05          5.6230     1.4350    -0.8840 ca         1 HW4      -0.220000
     27 C07          7.9980     2.3040    -1.2030 c3         1 HW4      -0.053800
     28 H1          -9.2150     1.7580     2.0700 ha         1 HW4       0.131000
     29 H2          -8.3030     2.8430     0.0110 ha         1 HW4       0.116000
     30 H3          -6.5600     1.6840    -1.3320 ha         1 HW4       0.116000
     31 H4          -6.6400    -1.6390     1.4350 ha         1 HW4       0.130000
     32 H5          -5.5590    -1.8540    -0.8230 hc         1 HW4       0.048200
     33 H6          -5.5010    -0.4900    -1.9250 hc         1 HW4       0.048200
     34 H7          -3.8370     0.6540    -0.4260 hc         1 HW4       0.045700
     35 H8          -3.8950    -0.7170     0.6810 hc         1 HW4       0.045700
     36 H9          -3.0290    -2.2220    -1.1380 hc         1 HW4       0.037200
     37 H10         -2.9710    -0.8500    -2.2450 hc         1 HW4       0.037200
     38 H11         -1.3020     0.2870    -0.7490 hc         1 HW4       0.054200
     39 H12         -1.3600    -1.0870     0.3590 hc         1 HW4       0.054200
     40 H13         -0.4910    -2.5880    -1.4460 h1         1 HW4       0.017700
     41 H14         -0.4280    -1.2020    -2.5630 h1         1 HW4       0.017700
     42 H15          2.0660    -1.4550    -2.6750 h1         1 HW4       0.038700
     43 H16          1.3740    -3.5250    -0.6960 h1         1 HW4       0.049700
     44 H17          2.4200    -3.7780    -2.0990 h1         1 HW4       0.049700
     45 H18          4.2910    -3.3730    -0.8680 hn         1 HW4       0.395000
     46 H20          2.7220    -1.7350     1.0450 h1         1 HW4       0.068200
     47 H21          4.4870    -1.7290     0.8240 h1         1 HW4       0.068200
     48 H22          4.2200    -1.0880    -1.5900 hc         1 HW4       0.045700
     49 H23          2.9950     1.0830    -1.5340 hc         1 HW4       0.065700
     50 H24          2.4220     0.7320     0.0770 hc         1 HW4       0.065700
     51 H25          4.6480     1.9530     3.4800 hn         1 HW4       0.469000
     52 H26          6.2070     2.6860     3.5500 hn         1 HW4       0.469000
     53 H27          7.6980     2.5890     1.5450 ha         1 HW4       0.118000
     54 H28          5.5520     1.2470    -1.9520 ha         1 HW4       0.119000
     55 H29          8.6530     1.4320    -1.3140 hc         1 HW4       0.046033
     56 H30          7.6880     2.6220    -2.2050 hc         1 HW4       0.046033
     57 H31          8.5930     3.1170    -0.7690 hc         1 HW4       0.046033
@<TRIPOS>BOND
     1     1     2 1   
     2     2     3 ar  
     3     2     6 ar  
     4     3     4 ar  
     5     3    28 1   
     6     4     5 ar  
     7     4    29 1   
     8     5     7 ar  
     9     5    30 1   
    10     6     7 ar  
    11     6    31 1   
    12     7     8 1   
    13     8     9 1   
    14     8    32 1   
    15     8    33 1   
    16     9    10 1   
    17     9    34 1   
    18     9    35 1   
    19    10    11 1   
    20    10    36 1   
    21    10    37 1   
    22    11    12 1   
    23    11    38 1   
    24    11    39 1   
    25    12    13 1   
    26    12    40 1   
    27    12    41 1   
    28    13    14 1   
    29    14    15 1   
    30    14    18 1   
    31    14    42 1   
    32    15    16 1   
    33    15    43 1   
    34    15    44 1   
    35    16    17 1   
    36    16    45 1   
    37    17    18 1   
    38    17    46 1   
    39    17    47 1   
    40    18    19 1   
    41    18    48 1   
    42    19    20 1   
    43    19    49 1   
    44    19    50 1   
    45    20    21 ar  
    46    20    26 ar  
    47    21    22 ar  
    48    22    23 1   
    49    22    24 ar  
    50    23    51 1   
    51    23    52 1   
    52    24    25 ar  
    53    24    53 1   
    54    25    26 ar  
    55    25    27 1   
    56    26    54 1   
    57    27    55 1   
    58    27    56 1   
    59    27    57 1   
@<TRIPOS>SUBSTRUCTURE
     1 HW4         1 TEMP              0 ****  ****    0 ROOT
