@<TRIPOS>MOLECULE
HW5
   55    57     1     0     0
SMALL
No Charge or Current Charge


@<TRIPOS>ATOM
      1 F23         -8.2460    -2.6490    -0.2890 f          1 HW5      -0.181000
      2 C23         -7.5560    -1.6120    -0.8120 ca         1 HW5       0.170000
      3 C22         -6.4920    -1.0480    -0.0900 ca         1 HW5      -0.147000
      4 C21         -5.7640     0.0350    -0.6210 ca         1 HW5      -0.018800
      5 C26         -6.1190     0.5370    -1.8930 ca         1 HW5      -0.118000
      6 C25         -7.1850    -0.0310    -2.6140 ca         1 HW5      -0.085000
      7 C24         -7.9060    -1.1070    -2.0720 ca         1 HW5      -0.151000
      8 C14         -4.6370     0.6080     0.1730 ce         1 HW5      -0.171200
      9 C13         -4.0050     1.7790    -0.0650 c2         1 HW5      -0.193200
     10 C12         -2.8660     2.3360     0.7630 c3         1 HW5      -0.044200
     11 C11         -1.5090     1.7060     0.3850 c3         1 HW5      -0.078400
     12 C10         -0.3360     2.2620     1.2140 c3         1 HW5       0.162600
     13 O09          0.8600     1.5960     0.7750 os         1 HW5      -0.451000
     14 C3           2.1020     1.9480     1.4420 c5         1 HW5       0.150300
     15 C4           3.2350     1.0210     0.9020 c5         1 HW5      -0.084700
     16 C5           3.6350     1.7890    -0.3810 c5         1 HW5       0.151800
     17 N1           3.7790     3.1760     0.1210 n7         1 HW5      -0.839400
     18 C2           2.5630     3.3760     0.9630 c5         1 HW5       0.114800
     19 C08          2.8650    -0.4740     0.6960 c3         1 HW5      -0.109700
     20 C06          4.0390    -1.3350     0.2510 ca         1 HW5       0.396300
     21 C05          5.0170    -1.7480     1.1760 ca         1 HW5      -0.218000
     22 C04          6.0970    -2.5320     0.7390 ca         1 HW5       0.000700
     23 C07          7.1770    -2.9950     1.7020 c3         1 HW5      -0.053800
     24 C03          6.1430    -2.8620    -0.6230 ca         1 HW5      -0.232000
     25 C02          5.1190    -2.4010    -1.4530 ca         1 HW5       0.595900
     26 N01          4.0930    -1.6590    -1.0610 nb         1 HW5      -0.748000
     27 N02          5.0650    -2.6470    -2.7640 nv         1 HW5      -1.050900
     28 H1          -6.2380    -1.4550     0.8850 ha         1 HW5       0.130000
     29 H2          -5.5700     1.3600    -2.3390 ha         1 HW5       0.117000
     30 H3          -7.4490     0.3630    -3.5940 ha         1 HW5       0.116000
     31 H4          -8.7310    -1.5500    -2.6250 ha         1 HW5       0.132000
     32 H5          -4.3290    -0.0000     1.0260 ha         1 HW5       0.173000
     33 H7          -4.2950     2.4230    -0.8960 ha         1 HW5       0.171000
     34 H9          -2.8060     3.4230     0.6290 hc         1 HW5       0.046700
     35 H10         -3.0590     2.1650     1.8290 hc         1 HW5       0.046700
     36 H11         -1.5630     0.6190     0.5260 hc         1 HW5       0.057200
     37 H12         -1.3120     1.8840    -0.6790 hc         1 HW5       0.057200
     38 H13         -0.2650     3.3470     1.0640 h1         1 HW5       0.017700
     39 H14         -0.5150     2.0690     2.2800 h1         1 HW5       0.017700
     40 H15          1.9740     1.8700     2.5300 h1         1 HW5       0.040700
     41 H16          4.0710     1.0300     1.6130 hc         1 HW5       0.046700
     42 H17          4.5720     1.4120    -0.8180 h1         1 HW5       0.065200
     43 H18          2.8510     1.7220    -1.1510 h1         1 HW5       0.065200
     44 H19          4.6020     3.1960     0.7360 hn         1 HW5       0.395000
     45 H21          1.7780     3.8640     0.3700 h1         1 HW5       0.048700
     46 H22          2.7830     4.0350     1.8150 h1         1 HW5       0.048700
     47 H23          2.4670    -0.8790     1.6340 hc         1 HW5       0.065700
     48 H24          2.0490    -0.5620    -0.0310 hc         1 HW5       0.065700
     49 H25          4.9330    -1.4580     2.2200 ha         1 HW5       0.120000
     50 H26          7.9750    -2.2480     1.7820 hc         1 HW5       0.046033
     51 H27          6.7700    -3.1610     2.7070 hc         1 HW5       0.046033
     52 H28          7.6310    -3.9370     1.3700 hc         1 HW5       0.046033
     53 H29          6.9520    -3.4620    -1.0270 ha         1 HW5       0.119000
     54 H30          5.9310    -2.8940    -3.2290 hn         1 HW5       0.466500
     55 H31          4.4130    -2.0740    -3.2850 hn         1 HW5       0.466500
@<TRIPOS>BOND
     1     1     2 1   
     2     2     3 ar  
     3     2     7 ar  
     4     3     4 ar  
     5     3    28 1   
     6     4     5 ar  
     7     4     8 1   
     8     5     6 ar  
     9     5    29 1   
    10     6     7 ar  
    11     6    30 1   
    12     7    31 1   
    13     8     9 2   
    14     8    32 1   
    15     9    10 1   
    16     9    33 1   
    17    10    11 1   
    18    10    34 1   
    19    10    35 1   
    20    11    12 1   
    21    11    36 1   
    22    11    37 1   
    23    12    13 1   
    24    12    38 1   
    25    12    39 1   
    26    13    14 1   
    27    14    15 1   
    28    14    18 1   
    29    14    40 1   
    30    15    16 1   
    31    15    19 1   
    32    15    41 1   
    33    16    17 1   
    34    16    42 1   
    35    16    43 1   
    36    17    18 1   
    37    17    44 1   
    38    18    45 1   
    39    18    46 1   
    40    19    20 1   
    41    19    47 1   
    42    19    48 1   
    43    20    21 ar  
    44    20    26 ar  
    45    21    22 ar  
    46    21    49 1   
    47    22    23 1   
    48    22    24 ar  
    49    23    50 1   
    50    23    51 1   
    51    23    52 1   
    52    24    25 ar  
    53    24    53 1   
    54    25    26 ar  
    55    25    27 1   
    56    27    54 1   
    57    27    55 1   
@<TRIPOS>SUBSTRUCTURE
     1 HW5         1 TEMP              0 ****  ****    0 ROOT
