@<TRIPOS>MOLECULE
HW5
   55    57     1     0     0
SMALL
abcg2


@<TRIPOS>ATOM
      1 F23         -8.8530    -2.0450     0.1100 f          1 HW5      -0.181000
      2 C23         -7.9990    -1.2190    -0.5190 ca         1 HW5       0.170000
      3 C22         -6.9240    -0.7200     0.1900 ca         1 HW5      -0.147000
      4 C21         -6.0190     0.1380    -0.4390 ca         1 HW5      -0.018800
      5 C26         -6.2380     0.4680    -1.7810 ca         1 HW5      -0.118000
      6 C25         -7.3250    -0.0470    -2.4660 ca         1 HW5      -0.085000
      7 C24         -8.2270    -0.9030    -1.8430 ca         1 HW5      -0.151000
      8 C14         -4.8870     0.6450     0.3420 ce         1 HW5      -0.171200
      9 C13         -3.9180     1.4530    -0.0910 c2         1 HW5      -0.193200
     10 C12         -2.7780     1.9260     0.7490 c3         1 HW5      -0.044200
     11 C11         -1.4340     1.4200     0.2240 c3         1 HW5      -0.078400
     12 C10         -0.2730     2.0030     1.0060 c3         1 HW5       0.162600
     13 O09          0.9300     1.5100     0.4740 os         1 HW5      -0.451000
     14 C3           2.0880     1.8950     1.1820 c5         1 HW5       0.150300
     15 C4           3.2590     1.0380     0.6980 c5         1 HW5      -0.084700
     16 C5           3.6950     1.7980    -0.5560 c5         1 HW5       0.151800
     17 N1           3.5740     3.2120    -0.2110 n7         1 HW5      -0.839400
     18 C2           2.5400     3.3250     0.8280 c5         1 HW5       0.114800
     19 C08          2.9390    -0.4450     0.5210 c3         1 HW5      -0.109700
     20 C06          4.1670    -1.2480     0.1970 ca         1 HW5       0.396300
     21 C05          4.8620    -1.9160     1.1900 ca         1 HW5      -0.218000
     22 C04          6.0210    -2.6210     0.8550 ca         1 HW5       0.000700
     23 C07          6.8100    -3.3410     1.9060 c3         1 HW5      -0.053800
     24 C03          6.4220    -2.6220    -0.4660 ca         1 HW5      -0.232000
     25 C02          5.6560    -1.9200    -1.4110 ca         1 HW5       0.595900
     26 N01          4.5550    -1.2530    -1.0800 nb         1 HW5      -0.748000
     27 N02          5.9940    -1.9380    -2.7360 nv         1 HW5      -1.050900
     28 H1          -6.7870    -0.9980     1.2280 ha         1 HW5       0.130000
     29 H2          -5.5580     1.1300    -2.3000 ha         1 HW5       0.117000
     30 H3          -7.4790     0.2190    -3.5030 ha         1 HW5       0.116000
     31 H4          -9.0780    -1.3100    -2.3730 ha         1 HW5       0.132000
     32 H5          -4.8540     0.3130     1.3770 ha         1 HW5       0.173000
     33 H7          -3.9160     1.7990    -1.1210 ha         1 HW5       0.171000
     34 H9          -2.7670     3.0210     0.7490 hc         1 HW5       0.046700
     35 H10         -2.9180     1.6110     1.7860 hc         1 HW5       0.046700
     36 H11         -1.4060     0.3280     0.2820 hc         1 HW5       0.057200
     37 H12         -1.3280     1.6860    -0.8320 hc         1 HW5       0.057200
     38 H13         -0.3160     3.1010     0.9550 h1         1 HW5       0.017700
     39 H14         -0.3610     1.7370     2.0700 h1         1 HW5       0.017700
     40 H15          1.9170     1.7790     2.2610 h1         1 HW5       0.040700
     41 H16          4.0530     1.1410     1.4470 hc         1 HW5       0.046700
     42 H17          4.7120     1.5680    -0.8700 h1         1 HW5       0.065200
     43 H18          3.0360     1.5470    -1.3940 h1         1 HW5       0.065200
     44 H19          4.4550     3.5250     0.1720 hn         1 HW5       0.395000
     45 H21          1.6890     3.9190     0.4800 h1         1 HW5       0.048700
     46 H22          2.9350     3.8330     1.7110 h1         1 HW5       0.048700
     47 H23          2.4880    -0.8270     1.4400 hc         1 HW5       0.065700
     48 H24          2.2060    -0.5740    -0.2770 hc         1 HW5       0.065700
     49 H25          4.5090    -1.8900     2.2140 ha         1 HW5       0.120000
     50 H26          7.3320    -2.6310     2.5490 hc         1 HW5       0.046033
     51 H27          6.1580    -3.9340     2.5480 hc         1 HW5       0.046033
     52 H28          7.5550    -4.0040     1.4680 hc         1 HW5       0.046033
     53 H29          7.3140    -3.1540    -0.7760 ha         1 HW5       0.119000
     54 H30          6.9500    -2.1570    -2.9620 hn         1 HW5       0.466500
     55 H31          5.6030    -1.2010    -3.2980 hn         1 HW5       0.466500
@<TRIPOS>BOND
     1     1     2 1   
     2     2     3 ar  
     3     2     7 ar  
     4     3     4 ar  
     5     3    28 1   
     6     4     5 ar  
     7     4     8 1   
     8     5     6 ar  
     9     5    29 1   
    10     6     7 ar  
    11     6    30 1   
    12     7    31 1   
    13     8     9 2   
    14     8    32 1   
    15     9    10 1   
    16     9    33 1   
    17    10    11 1   
    18    10    34 1   
    19    10    35 1   
    20    11    12 1   
    21    11    36 1   
    22    11    37 1   
    23    12    13 1   
    24    12    38 1   
    25    12    39 1   
    26    13    14 1   
    27    14    15 1   
    28    14    18 1   
    29    14    40 1   
    30    15    16 1   
    31    15    19 1   
    32    15    41 1   
    33    16    17 1   
    34    16    42 1   
    35    16    43 1   
    36    17    18 1   
    37    17    44 1   
    38    18    45 1   
    39    18    46 1   
    40    19    20 1   
    41    19    47 1   
    42    19    48 1   
    43    20    21 ar  
    44    20    26 ar  
    45    21    22 ar  
    46    21    49 1   
    47    22    23 1   
    48    22    24 ar  
    49    23    50 1   
    50    23    51 1   
    51    23    52 1   
    52    24    25 ar  
    53    24    53 1   
    54    25    26 ar  
    55    25    27 1   
    56    27    54 1   
    57    27    55 1   
@<TRIPOS>SUBSTRUCTURE
     1 HW5         1 TEMP              0 ****  ****    0 ROOT
