@<TRIPOS>MOLECULE
HW6
   57    59     1     0     0
SMALL
No Charge or Current Charge


@<TRIPOS>ATOM
      1 F23         -7.7610    -0.5720    -2.9350 f          1 HW6      -0.174000
      2 C23         -7.2410    -0.2130    -1.7420 ca         1 HW6       0.183000
      3 C24         -7.7250     0.9290    -1.0870 ca         1 HW6      -0.151000
      4 C22         -6.2190    -0.9840    -1.1670 ca         1 HW6      -0.152000
      5 C21         -5.6700    -0.6170     0.0780 ca         1 HW6      -0.039300
      6 C26         -6.1560     0.5310     0.7330 ca         1 HW6      -0.121000
      7 C25         -7.1790     1.2990     0.1520 ca         1 HW6       0.145000
      8 Cl2         -7.7780     2.7310     0.9790 cl         1 HW6      -0.194000
      9 C14         -4.5560    -1.4460     0.7020 c3         1 HW6      -0.036100
     10 C13         -3.1580    -0.9400     0.2900 c3         1 HW6      -0.073400
     11 C12         -2.0070    -1.7630     0.9100 c3         1 HW6      -0.075400
     12 C11         -0.6090    -1.2540     0.4960 c3         1 HW6      -0.079400
     13 C10          0.5370    -2.0760     1.1140 c3         1 HW6       0.162600
     14 O09          1.7750    -1.5040     0.6610 os         1 HW6      -0.454000
     15 C3           3.0050    -2.1110     1.1410 c5         1 HW6       0.149300
     16 C4           4.2080    -1.2570     0.6330 c5         1 HW6      -0.088700
     17 C5           4.3880    -1.8470    -0.7870 c5         1 HW6       0.142800
     18 N1           4.3780    -3.3030    -0.5200 n7         1 HW6      -0.833400
     19 C2           3.2250    -3.4880     0.4090 c5         1 HW6       0.111800
     20 C08          4.0340     0.2870     0.7040 c3         1 HW6      -0.106700
     21 C06          5.2580     1.0630     0.2380 ca         1 HW6       0.395300
     22 C05          5.3870     1.4630    -1.1070 ca         1 HW6      -0.213000
     23 C04          6.5320     2.1680    -1.5120 ca         1 HW6       0.000700
     24 C07          6.7130     2.6200    -2.9510 c3         1 HW6      -0.053800
     25 C03          7.4990     2.4430    -0.5330 ca         1 HW6      -0.232000
     26 C02          7.2670     2.0020     0.7710 ca         1 HW6       0.596900
     27 N01          6.1980     1.3310     1.1720 nb         1 HW6      -0.757000
     28 N02          8.1190     2.1990     1.7790 nv         1 HW6      -1.053900
     29 H1          -8.5150     1.5220    -1.5370 ha         1 HW6       0.148000
     30 H2          -5.8540    -1.8640    -1.6900 ha         1 HW6       0.135000
     31 H3          -5.7400     0.8310     1.6910 ha         1 HW6       0.133000
     32 H4          -4.6400    -1.4240     1.7960 hc         1 HW6       0.051700
     33 H5          -4.6600    -2.4980     0.4090 hc         1 HW6       0.051700
     34 H6          -3.0750    -0.9680    -0.8030 hc         1 HW6       0.046200
     35 H7          -3.0540     0.1100     0.5910 hc         1 HW6       0.046200
     36 H8          -2.0910    -1.7340     2.0040 hc         1 HW6       0.038200
     37 H9          -2.1120    -2.8130     0.6080 hc         1 HW6       0.038200
     38 H10         -0.5210    -1.2850    -0.5970 hc         1 HW6       0.053200
     39 H11         -0.5000    -0.2060     0.8000 hc         1 HW6       0.053200
     40 H12          0.4710    -2.0340     2.2100 h1         1 HW6       0.018200
     41 H13          0.4450    -3.1240     0.8010 h1         1 HW6       0.018200
     42 H14          2.9770    -2.1950     2.2360 h1         1 HW6       0.043700
     43 H15          5.0920    -1.4860     1.2410 hc         1 HW6       0.064700
     44 H16          3.5590    -1.5580    -1.4510 h1         1 HW6       0.059200
     45 H17          5.3280    -1.5250    -1.2580 h1         1 HW6       0.059200
     46 H18          5.2410    -3.5300    -0.0110 hn         1 HW6       0.396000
     47 H20          3.4270    -4.2970     1.1250 h1         1 HW6       0.050700
     48 H21          2.3310    -3.7760    -0.1610 h1         1 HW6       0.050700
     49 H22          3.1710     0.5950     0.1020 hc         1 HW6       0.064200
     50 H23          3.7880     0.5760     1.7330 hc         1 HW6       0.064200
     51 H24          4.6050     1.2250    -1.8220 ha         1 HW6       0.124000
     52 H25          6.2480     3.5990    -3.1140 hc         1 HW6       0.046700
     53 H26          7.7740     2.7040    -3.2140 hc         1 HW6       0.046700
     54 H27          6.2550     1.9100    -3.6510 hc         1 HW6       0.046700
     55 H28          8.4060     2.9870    -0.7790 ha         1 HW6       0.119000
     56 H29          9.0870     2.3800     1.5430 hn         1 HW6       0.466500
     57 H30          7.9470     1.6370     2.6040 hn         1 HW6       0.466500
@<TRIPOS>BOND
     1     1     2 1   
     2     2     3 ar  
     3     2     4 ar  
     4     3     7 ar  
     5     3    29 1   
     6     4     5 ar  
     7     4    30 1   
     8     5     6 ar  
     9     5     9 1   
    10     6     7 ar  
    11     6    31 1   
    12     7     8 1   
    13     9    10 1   
    14     9    32 1   
    15     9    33 1   
    16    10    11 1   
    17    10    34 1   
    18    10    35 1   
    19    11    12 1   
    20    11    36 1   
    21    11    37 1   
    22    12    13 1   
    23    12    38 1   
    24    12    39 1   
    25    13    14 1   
    26    13    40 1   
    27    13    41 1   
    28    14    15 1   
    29    15    16 1   
    30    15    19 1   
    31    15    42 1   
    32    16    17 1   
    33    16    20 1   
    34    16    43 1   
    35    17    18 1   
    36    17    44 1   
    37    17    45 1   
    38    18    19 1   
    39    18    46 1   
    40    19    47 1   
    41    19    48 1   
    42    20    21 1   
    43    20    49 1   
    44    20    50 1   
    45    21    22 ar  
    46    21    27 ar  
    47    22    23 ar  
    48    22    51 1   
    49    23    24 1   
    50    23    25 ar  
    51    24    52 1   
    52    24    53 1   
    53    24    54 1   
    54    25    26 ar  
    55    25    55 1   
    56    26    27 ar  
    57    26    28 1   
    58    28    56 1   
    59    28    57 1   
@<TRIPOS>SUBSTRUCTURE
     1 HW6         1 TEMP              0 ****  ****    0 ROOT
