@<TRIPOS>MOLECULE
HW6
   57    59     1     0     0
SMALL
abcg2


@<TRIPOS>ATOM
      1 F23         -7.8990    -1.1350    -2.6510 f          1 HW6      -0.174000
      2 C23         -7.3180    -0.5850    -1.5750 ca         1 HW6       0.183000
      3 C24         -7.7970     0.6280    -1.1210 ca         1 HW6      -0.151000
      4 C22         -6.2740    -1.2540    -0.9680 ca         1 HW6      -0.152000
      5 C21         -5.6710    -0.6940     0.1540 ca         1 HW6      -0.039300
      6 C26         -6.1310     0.5290     0.6370 ca         1 HW6      -0.121000
      7 C25         -7.1800     1.1690    -0.0030 ca         1 HW6       0.145000
      8 CL2         -7.7450     2.6870     0.6080 cl         1 HW6      -0.194000
      9 C14         -4.5050    -1.3750     0.8090 c3         1 HW6      -0.036100
     10 C13         -3.1670    -0.8880     0.2490 c3         1 HW6      -0.073400
     11 C12         -1.9820    -1.5920     0.8960 c3         1 HW6      -0.075400
     12 C11         -0.6420    -1.1200     0.3470 c3         1 HW6      -0.079400
     13 C10          0.5180    -1.8420     1.0030 c3         1 HW6       0.162600
     14 O09          1.7280    -1.3860     0.4480 os         1 HW6      -0.454000
     15 C3           2.8800    -1.9330     1.0510 c5         1 HW6       0.149300
     16 C4           4.1050    -1.1410     0.5920 c5         1 HW6      -0.088700
     17 C5           4.4690    -1.8510    -0.7110 c5         1 HW6       0.142800
     18 N1           4.2550    -3.2700    -0.4520 n7         1 HW6      -0.833400
     19 C2           3.1820    -3.3640     0.5480 c5         1 HW6       0.111800
     20 C08          3.9200     0.3680     0.4870 c3         1 HW6      -0.106700
     21 C06          5.2080     1.0520     0.1190 ca         1 HW6       0.395300
     22 C05          5.3490     1.7110    -1.0890 ca         1 HW6      -0.213000
     23 C04          6.5770     2.3030    -1.4040 ca         1 HW6       0.000700
     24 C07          6.7610     3.0470    -2.6910 c3         1 HW6      -0.053800
     25 C03          7.6020     2.2000    -0.4850 ca         1 HW6      -0.232000
     26 C02          7.3700     1.5180     0.7210 ca         1 HW6       0.596900
     27 N01          6.1990     0.9600     1.0080 nb         1 HW6      -0.757000
     28 N02          8.3450     1.4410     1.6760 nv         1 HW6      -1.053900
     29 H1          -8.6180     1.1270    -1.6180 ha         1 HW6       0.148000
     30 H2          -5.9370    -2.2050    -1.3620 ha         1 HW6       0.135000
     31 H3          -5.6720     0.9760     1.5090 ha         1 HW6       0.133000
     32 H4          -4.5310    -1.1960     1.8870 hc         1 HW6       0.051700
     33 H5          -4.5830    -2.4560     0.6670 hc         1 HW6       0.051700
     34 H6          -3.1460    -1.0500    -0.8330 hc         1 HW6       0.046200
     35 H7          -3.0820     0.1930     0.4000 hc         1 HW6       0.046200
     36 H8          -2.0130    -1.4310     1.9790 hc         1 HW6       0.038200
     37 H9          -2.0780    -2.6720     0.7460 hc         1 HW6       0.038200
     38 H10         -0.6090    -1.2880    -0.7340 hc         1 HW6       0.053200
     39 H11         -0.5370    -0.0420     0.5030 hc         1 HW6       0.053200
     40 H12          0.5060    -1.6650     2.0890 h1         1 HW6       0.018200
     41 H13          0.4000    -2.9260     0.8630 h1         1 HW6       0.018200
     42 H14          2.7680    -1.9050     2.1430 h1         1 HW6       0.043700
     43 H15          4.9020    -1.3410     1.3170 hc         1 HW6       0.064700
     44 H16          3.8180    -1.5050    -1.5230 h1         1 HW6       0.059200
     45 H17          5.4970    -1.6710    -1.0290 h1         1 HW6       0.059200
     46 H18          5.1030    -3.6470    -0.0510 hn         1 HW6       0.396000
     47 H20          3.4860    -4.0150     1.3690 h1         1 HW6       0.050700
     48 H21          2.2800    -3.8050     0.1130 h1         1 HW6       0.050700
     49 H22          3.1570     0.6050    -0.2560 hc         1 HW6       0.064200
     50 H23          3.5680     0.7620     1.4460 hc         1 HW6       0.064200
     51 H24          4.5210     1.7530    -1.7870 ha         1 HW6       0.124000
     52 H25          6.3610     4.0590    -2.6040 hc         1 HW6       0.046700
     53 H26          7.8120     3.1320    -2.9610 hc         1 HW6       0.046700
     54 H27          6.2320     2.5620    -3.5110 hc         1 HW6       0.046700
     55 H28          8.5740     2.6360    -0.6850 ha         1 HW6       0.119000
     56 H29          9.2980     1.5540     1.3740 hn         1 HW6       0.466500
     57 H30          8.2190     0.7270     2.3750 hn         1 HW6       0.466500
@<TRIPOS>BOND
     1     1     2 1   
     2     2     3 ar  
     3     2     4 ar  
     4     3     7 ar  
     5     3    29 1   
     6     4     5 ar  
     7     4    30 1   
     8     5     6 ar  
     9     5     9 1   
    10     6     7 ar  
    11     6    31 1   
    12     7     8 1   
    13     9    10 1   
    14     9    32 1   
    15     9    33 1   
    16    10    11 1   
    17    10    34 1   
    18    10    35 1   
    19    11    12 1   
    20    11    36 1   
    21    11    37 1   
    22    12    13 1   
    23    12    38 1   
    24    12    39 1   
    25    13    14 1   
    26    13    40 1   
    27    13    41 1   
    28    14    15 1   
    29    15    16 1   
    30    15    19 1   
    31    15    42 1   
    32    16    17 1   
    33    16    20 1   
    34    16    43 1   
    35    17    18 1   
    36    17    44 1   
    37    17    45 1   
    38    18    19 1   
    39    18    46 1   
    40    19    47 1   
    41    19    48 1   
    42    20    21 1   
    43    20    49 1   
    44    20    50 1   
    45    21    22 ar  
    46    21    27 ar  
    47    22    23 ar  
    48    22    51 1   
    49    23    24 1   
    50    23    25 ar  
    51    24    52 1   
    52    24    53 1   
    53    24    54 1   
    54    25    26 ar  
    55    25    55 1   
    56    26    27 ar  
    57    26    28 1   
    58    28    56 1   
    59    28    57 1   
@<TRIPOS>SUBSTRUCTURE
     1 HW6         1 TEMP              0 ****  ****    0 ROOT
