@<TRIPOS>MOLECULE
HW7
   55    57     1     0     0
SMALL
bcc


@<TRIPOS>ATOM
      1 CL2          6.9720     2.9410     1.1150 cl         1 HW7      -0.103400
      2 C25          6.8850     1.3150     0.5280 ca         1 HW7       0.092400
      3 C24          8.0620     0.6510     0.2360 ca         1 HW7      -0.207000
      4 C23          7.9390    -0.6470    -0.2320 ca         1 HW7       0.182900
      5 F23          9.0590    -1.3210    -0.5230 f          1 HW7      -0.135900
      6 C22          6.7300    -1.2760    -0.4090 ca         1 HW7      -0.216000
      7 C26          5.6340     0.7360     0.3710 ca         1 HW7      -0.238000
      8 C21          5.5610    -0.5740    -0.1010 ca         1 HW7       0.188100
      9 O14          4.4150    -1.2390    -0.2880 os         1 HW7      -0.320900
     10 C13          3.1780    -0.5890    -0.0170 c3         1 HW7       0.141400
     11 C12          2.0640    -1.5760    -0.2910 c3         1 HW7      -0.082400
     12 C11          0.6970    -0.9610    -0.0130 c3         1 HW7      -0.079400
     13 C10         -0.4150    -1.9590    -0.2680 c3         1 HW7       0.140400
     14 O09         -1.6500    -1.3680     0.0500 os         1 HW7      -0.409600
     15 C3          -2.7690    -2.1660    -0.2700 c5         1 HW7       0.122100
     16 C2          -2.9840    -3.3140     0.7520 c5         1 HW7       0.107800
     17 C4          -4.0430    -1.3290    -0.1320 c5         1 HW7      -0.090700
     18 C5          -4.4500    -1.5910     1.3190 c5         1 HW7       0.139800
     19 N1          -4.1810    -3.0050     1.5390 n7         1 HW7      -0.773200
     20 C08         -3.9220     0.1390    -0.5270 c3         1 HW7      -0.104700
     21 C06         -5.2530     0.8340    -0.4480 ca         1 HW7       0.459600
     22 N01         -6.1930     0.4070    -1.2950 nb         1 HW7      -0.758000
     23 C05         -5.4790     1.8440     0.4690 ca         1 HW7      -0.297300
     24 C04         -6.7410     2.4460     0.5240 ca         1 HW7       0.001700
     25 C07         -7.0150     3.5580     1.4900 c3         1 HW7      -0.053800
     26 C03         -7.7130     1.9960    -0.3460 ca         1 HW7      -0.315300
     27 C02         -7.3960     0.9670    -1.2490 ca         1 HW7       0.664200
     28 N02         -8.3470     0.4700    -2.0950 nv         1 HW7      -0.945500
     29 H1           9.0310     1.1120     0.3660 ha         1 HW7       0.168000
     30 H2           6.6800    -2.2920    -0.7790 ha         1 HW7       0.167000
     31 H3           4.7480     1.3020     0.6170 ha         1 HW7       0.155000
     32 H4           3.1440    -0.2610     1.0280 h1         1 HW7       0.040700
     33 H5           3.0740     0.2990    -0.6500 h1         1 HW7       0.040700
     34 H6           2.1180    -1.9080    -1.3320 hc         1 HW7       0.057200
     35 H7           2.2050    -2.4590     0.3370 hc         1 HW7       0.057200
     36 H8           0.6490    -0.6230     1.0270 hc         1 HW7       0.054200
     37 H9           0.5470    -0.0810    -0.6440 hc         1 HW7       0.054200
     38 H10         -0.4020    -2.2730    -1.3230 h1         1 HW7       0.021700
     39 H11         -0.2400    -2.8640     0.3310 h1         1 HW7       0.021700
     40 H12         -2.6580    -2.5520    -1.2920 h1         1 HW7       0.042700
     41 H13         -3.0920    -4.2840     0.2650 h1         1 HW7       0.054200
     42 H14         -2.1090    -3.3840     1.4060 h1         1 HW7       0.054200
     43 H15         -4.8020    -1.7920    -0.7720 hc         1 HW7       0.068700
     44 H16         -3.8430    -0.9820     1.9990 h1         1 HW7       0.061700
     45 H17         -5.4960    -1.3610     1.5240 h1         1 HW7       0.061700
     46 H18         -4.9590    -3.5340     1.1650 hn         1 HW7       0.342800
     47 H20         -3.2060     0.6480     0.1190 hc         1 HW7       0.062200
     48 H21         -3.5420     0.2140    -1.5500 hc         1 HW7       0.062200
     49 H22         -4.6860     2.1610     1.1350 ha         1 HW7       0.141000
     50 H23         -6.4870     4.4650     1.1890 hc         1 HW7       0.046700
     51 H24         -8.0770     3.7950     1.5440 hc         1 HW7       0.046700
     52 H25         -6.6690     3.3040     2.4920 hc         1 HW7       0.046700
     53 H26         -8.7080     2.4250    -0.3390 ha         1 HW7       0.137000
     54 H27         -8.0080    -0.0470    -2.8900 hn         1 HW7       0.411800
     55 H28         -9.1390     1.0570    -2.2960 hn         1 HW7       0.411800
@<TRIPOS>BOND
     1     1     2 1   
     2     2     3 ar  
     3     2     7 ar  
     4     3     4 ar  
     5     3    29 1   
     6     4     5 1   
     7     4     6 ar  
     8     6     8 ar  
     9     6    30 1   
    10     7     8 ar  
    11     7    31 1   
    12     8     9 1   
    13     9    10 1   
    14    10    11 1   
    15    10    32 1   
    16    10    33 1   
    17    11    12 1   
    18    11    34 1   
    19    11    35 1   
    20    12    13 1   
    21    12    36 1   
    22    12    37 1   
    23    13    14 1   
    24    13    38 1   
    25    13    39 1   
    26    14    15 1   
    27    15    16 1   
    28    15    17 1   
    29    15    40 1   
    30    16    19 1   
    31    16    41 1   
    32    16    42 1   
    33    17    18 1   
    34    17    20 1   
    35    17    43 1   
    36    18    19 1   
    37    18    44 1   
    38    18    45 1   
    39    19    46 1   
    40    20    21 1   
    41    20    47 1   
    42    20    48 1   
    43    21    22 ar  
    44    21    23 ar  
    45    22    27 ar  
    46    23    24 ar  
    47    23    49 1   
    48    24    25 1   
    49    24    26 ar  
    50    25    50 1   
    51    25    51 1   
    52    25    52 1   
    53    26    27 ar  
    54    26    53 1   
    55    27    28 1   
    56    28    54 1   
    57    28    55 1   
@<TRIPOS>SUBSTRUCTURE
     1 HW7         1 TEMP              0 ****  ****    0 ROOT
