@<TRIPOS>MOLECULE
HW7
   55    57     1     0     0
SMALL
No Charge or Current Charge


@<TRIPOS>ATOM
      1 Cl2          6.9630     3.2060     0.8840 cl         1 HW7      -0.195000
      2 C25          6.9080     1.5110     0.4220 ca         1 HW7       0.184000
      3 C24          8.1000     0.8140     0.1830 ca         1 HW7      -0.189000
      4 C23          8.0500    -0.5360    -0.1850 ca         1 HW7       0.218000
      5 F23          9.1970    -1.2110    -0.4170 f          1 HW7      -0.171000
      6 C22          6.8180    -1.1920    -0.3140 ca         1 HW7      -0.198000
      7 C26          5.6700     0.8630     0.2960 ca         1 HW7      -0.220000
      8 C21          5.6230    -0.4980    -0.0750 ca         1 HW7       0.188100
      9 O14          4.4390    -1.1900    -0.2160 os         1 HW7      -0.344100
     10 C13          3.1600    -0.5730     0.0060 c3         1 HW7       0.164600
     11 C12          2.0790    -1.6420    -0.2420 c3         1 HW7      -0.082400
     12 C11          0.6440    -1.1070    -0.0370 c3         1 HW7      -0.079400
     13 C10         -0.4370    -2.1750    -0.2840 c3         1 HW7       0.163600
     14 O09         -1.7160    -1.5540    -0.0680 os         1 HW7      -0.456000
     15 C3          -2.8980    -2.3750    -0.2680 c5         1 HW7       0.145300
     16 C2          -3.0400    -3.3810     0.9340 c5         1 HW7       0.107800
     17 C4          -4.1590    -1.4700    -0.1110 c5         1 HW7      -0.090700
     18 C5          -4.3210    -1.4850     1.4300 c5         1 HW7       0.139800
     19 N1          -4.2160    -2.9290     1.7370 n7         1 HW7      -0.828400
     20 C08         -4.0820    -0.0620    -0.7660 c3         1 HW7      -0.104700
     21 C06         -5.3590     0.7530    -0.6170 ca         1 HW7       0.394300
     22 N01         -6.3020     0.5810    -1.5710 nb         1 HW7      -0.758000
     23 C05         -5.5300     1.6300     0.4710 ca         1 HW7      -0.214000
     24 C04         -6.7220     2.3640     0.5890 ca         1 HW7       0.001700
     25 C07         -6.9470     3.3230     1.7450 c3         1 HW7      -0.053800
     26 C03         -7.6920     2.1790    -0.4070 ca         1 HW7      -0.232000
     27 C02         -7.4190     1.2810    -1.4410 ca         1 HW7       0.598900
     28 N02         -8.2620     1.0320    -2.4440 nv         1 HW7      -1.055900
     29 H1           9.0580     1.3170     0.2810 ha         1 HW7       0.150000
     30 H2           6.7900    -2.2390    -0.5990 ha         1 HW7       0.149000
     31 H3           4.7640     1.4290     0.4880 ha         1 HW7       0.137000
     32 H4           3.0810    -0.2030     1.0370 h1         1 HW7       0.040700
     33 H5           3.0100     0.2680    -0.6840 h1         1 HW7       0.040700
     34 H6           2.1800    -2.0220    -1.2660 hc         1 HW7       0.057200
     35 H7           2.2500    -2.4870     0.4360 hc         1 HW7       0.057200
     36 H8           0.5420    -0.7270     0.9880 hc         1 HW7       0.054200
     37 H9           0.4720    -0.2610    -0.7140 hc         1 HW7       0.054200
     38 H10         -0.3580    -2.5470    -1.3140 h1         1 HW7       0.021700
     39 H11         -0.2830    -3.0170     0.4020 h1         1 HW7       0.021700
     40 H12         -2.8480    -2.8660    -1.2490 h1         1 HW7       0.042700
     41 H13         -3.1820    -4.4120     0.5820 h1         1 HW7       0.054200
     42 H14         -2.1380    -3.3740     1.5610 h1         1 HW7       0.054200
     43 H15         -5.0180    -1.9690    -0.5750 hc         1 HW7       0.068700
     44 H16         -3.5210    -0.9130     1.9240 h1         1 HW7       0.061700
     45 H17         -5.2860    -1.0680     1.7530 h1         1 HW7       0.061700
     46 H18         -5.0570    -3.3870     1.3630 hn         1 HW7       0.398000
     47 H20         -3.2490     0.5060    -0.3360 hc         1 HW7       0.062200
     48 H21         -3.8400    -0.1720    -1.8300 hc         1 HW7       0.062200
     49 H22         -4.7430     1.7360     1.2130 ha         1 HW7       0.123000
     50 H23         -6.5470     4.3170     1.5110 hc         1 HW7       0.046700
     51 H24         -8.0150     3.4350     1.9700 hc         1 HW7       0.046700
     52 H25         -6.4530     2.9690     2.6580 hc         1 HW7       0.046700
     53 H26         -8.6350     2.7170    -0.3780 ha         1 HW7       0.119000
     54 H27         -7.8460     0.5530    -3.2340 hn         1 HW7       0.467000
     55 H28         -8.9630     1.7330    -2.6550 hn         1 HW7       0.467000
@<TRIPOS>BOND
     1     1     2 1   
     2     2     3 ar  
     3     2     7 ar  
     4     3     4 ar  
     5     3    29 1   
     6     4     5 1   
     7     4     6 ar  
     8     6     8 ar  
     9     6    30 1   
    10     7     8 ar  
    11     7    31 1   
    12     8     9 1   
    13     9    10 1   
    14    10    11 1   
    15    10    32 1   
    16    10    33 1   
    17    11    12 1   
    18    11    34 1   
    19    11    35 1   
    20    12    13 1   
    21    12    36 1   
    22    12    37 1   
    23    13    14 1   
    24    13    38 1   
    25    13    39 1   
    26    14    15 1   
    27    15    16 1   
    28    15    17 1   
    29    15    40 1   
    30    16    19 1   
    31    16    41 1   
    32    16    42 1   
    33    17    18 1   
    34    17    20 1   
    35    17    43 1   
    36    18    19 1   
    37    18    44 1   
    38    18    45 1   
    39    19    46 1   
    40    20    21 1   
    41    20    47 1   
    42    20    48 1   
    43    21    22 ar  
    44    21    23 ar  
    45    22    27 ar  
    46    23    24 ar  
    47    23    49 1   
    48    24    25 1   
    49    24    26 ar  
    50    25    50 1   
    51    25    51 1   
    52    25    52 1   
    53    26    27 ar  
    54    26    53 1   
    55    27    28 1   
    56    28    54 1   
    57    28    55 1   
@<TRIPOS>SUBSTRUCTURE
     1 HW7         1 TEMP              0 ****  ****    0 ROOT
