@<TRIPOS>MOLECULE
HW8
   56    58     1     0     0
SMALL
No Charge or Current Charge


@<TRIPOS>ATOM
      1 N02         -7.1870    -1.4000     2.0100 nv         1 HW8      -1.058900
      2 C02         -6.3220    -1.4540     0.9960 ca         1 HW8       0.600900
      3 C03         -6.5880    -2.0980    -0.2140 ca         1 HW8      -0.234000
      4 C04         -5.5940    -2.0960    -1.2030 ca         1 HW8       0.001700
      5 C07         -5.8140    -2.7700    -2.5470 c3         1 HW8      -0.053800
      6 C05         -4.3900    -1.4380    -0.9050 ca         1 HW8      -0.214000
      7 C06         -4.2280    -0.8220     0.3510 ca         1 HW8       0.396300
      8 N01         -5.1920    -0.8330     1.2990 nb         1 HW8      -0.759000
      9 C08         -2.9360    -0.0950     0.7010 c3         1 HW8      -0.105700
     10 C4          -2.9630     1.4220     0.3640 c5         1 HW8      -0.089700
     11 C5          -3.0840     1.7740    -1.1390 c5         1 HW8       0.142800
     12 N1          -2.9370     3.2470    -1.1240 n7         1 HW8      -0.832400
     13 C3          -1.6860     2.2360     0.7400 c5         1 HW8       0.148300
     14 C2          -1.7730     3.4820    -0.2190 c5         1 HW8       0.110800
     15 O09         -0.5180     1.4440     0.3940 os         1 HW8      -0.456000
     16 C10          0.7680     1.9690     0.7650 c3         1 HW8       0.162600
     17 C11          1.8320     0.9500     0.3180 c3         1 HW8      -0.080400
     18 C12          3.2720     1.3910     0.6630 c3         1 HW8      -0.074400
     19 C13          4.3410     0.3710     0.2160 c3         1 HW8      -0.071400
     20 C14          5.7810     0.8120     0.5610 c3         1 HW8      -0.126700
     21 C26          6.8260    -0.1980     0.1070 ca         1 HW8       0.353300
     22 N21          7.3170    -1.0310     1.0550 nb         1 HW8      -0.675000
     23 C22          8.2430    -1.9440     0.6790 ca         1 HW8       0.340900
     24 C23          8.7100    -2.0600    -0.6420 ca         1 HW8      -0.169000
     25 C24          8.2020    -1.1970    -1.6260 ca         1 HW8      -0.071000
     26 C25          7.2410    -0.2500    -1.2380 ca         1 HW8      -0.160000
     27 H1          -7.9130    -2.1070     2.0400 hn         1 HW8       0.468500
     28 H2          -6.7910    -1.1150     2.8970 hn         1 HW8       0.468500
     29 H3          -7.5440    -2.5850    -0.3810 ha         1 HW8       0.118000
     30 H4          -6.2060    -2.0570    -3.2810 hc         1 HW8       0.046367
     31 H5          -4.8770    -3.1790    -2.9440 hc         1 HW8       0.046367
     32 H6          -6.5280    -3.5980    -2.4670 hc         1 HW8       0.046367
     33 H7          -3.5870    -1.4010    -1.6360 ha         1 HW8       0.124000
     34 H8          -2.7210    -0.2250     1.7680 hc         1 HW8       0.062700
     35 H9          -2.1060    -0.5810     0.1750 hc         1 HW8       0.062700
     36 H10         -3.8220     1.8340     0.9080 hc         1 HW8       0.067700
     37 H11         -2.2850     1.3000    -1.7290 h1         1 HW8       0.060200
     38 H12         -4.0490     1.4650    -1.5650 h1         1 HW8       0.060200
     39 H13         -3.7760     3.6380    -0.6770 hn         1 HW8       0.397000
     40 H15         -1.6520     2.5030     1.8050 h1         1 HW8       0.042700
     41 H16         -0.8550     3.5840    -0.8140 h1         1 HW8       0.050200
     42 H17         -1.9000     4.4160     0.3450 h1         1 HW8       0.050200
     43 H18          0.9590     2.9340     0.2780 h1         1 HW8       0.018200
     44 H19          0.8270     2.1100     1.8520 h1         1 HW8       0.018200
     45 H20          1.6250    -0.0160     0.7950 hc         1 HW8       0.053200
     46 H21          1.7500     0.8000    -0.7660 hc         1 HW8       0.053200
     47 H22          3.4750     2.3590     0.1880 hc         1 HW8       0.037200
     48 H23          3.3500     1.5440     1.7470 hc         1 HW8       0.037200
     49 H24          4.1390    -0.5970     0.6920 hc         1 HW8       0.048700
     50 H25          4.2610     0.2160    -0.8680 hc         1 HW8       0.048700
     51 H26          5.9830     1.7810     0.0890 hc         1 HW8       0.052700
     52 H27          5.8570     0.9790     1.6430 hc         1 HW8       0.052700
     53 H28          8.6220    -2.6010     1.4610 h4         1 HW8       0.017100
     54 H29          9.4550    -2.8100    -0.8910 ha         1 HW8       0.123000
     55 H30          8.5410    -1.2610    -2.6580 ha         1 HW8       0.118000
     56 H31          6.8190     0.4370    -1.9670 ha         1 HW8       0.122000
@<TRIPOS>BOND
     1     1     2 1   
     2     1    27 1   
     3     1    28 1   
     4     2     3 ar  
     5     2     8 ar  
     6     3     4 ar  
     7     3    29 1   
     8     4     5 1   
     9     4     6 ar  
    10     5    30 1   
    11     5    31 1   
    12     5    32 1   
    13     6     7 ar  
    14     6    33 1   
    15     7     8 ar  
    16     7     9 1   
    17     9    10 1   
    18     9    34 1   
    19     9    35 1   
    20    10    11 1   
    21    10    13 1   
    22    10    36 1   
    23    11    12 1   
    24    11    37 1   
    25    11    38 1   
    26    12    14 1   
    27    12    39 1   
    28    13    14 1   
    29    13    15 1   
    30    13    40 1   
    31    14    41 1   
    32    14    42 1   
    33    15    16 1   
    34    16    17 1   
    35    16    43 1   
    36    16    44 1   
    37    17    18 1   
    38    17    45 1   
    39    17    46 1   
    40    18    19 1   
    41    18    47 1   
    42    18    48 1   
    43    19    20 1   
    44    19    49 1   
    45    19    50 1   
    46    20    21 1   
    47    20    51 1   
    48    20    52 1   
    49    21    22 ar  
    50    21    26 ar  
    51    22    23 ar  
    52    23    24 ar  
    53    23    53 1   
    54    24    25 ar  
    55    24    54 1   
    56    25    26 ar  
    57    25    55 1   
    58    26    56 1   
@<TRIPOS>SUBSTRUCTURE
     1 HW8         1 TEMP              0 ****  ****    0 ROOT
