@<TRIPOS>MOLECULE
HW8
   56    58     1     0     0
SMALL
bcc


@<TRIPOS>ATOM
      1 N02         -7.2500    -0.7710     1.8020 nv         1 HW8      -0.948500
      2 C02         -6.2720    -1.1260     0.9190 ca         1 HW8       0.666200
      3 C03         -6.5540    -2.0020    -0.1450 ca         1 HW8      -0.317300
      4 C04         -5.5560    -2.2970    -1.0510 ca         1 HW8       0.001700
      5 C07         -5.8050    -3.2060    -2.2150 c3         1 HW8      -0.053800
      6 C05         -4.3000    -1.7080    -0.8630 ca         1 HW8      -0.297300
      7 C06         -4.1070    -0.8630     0.2140 ca         1 HW8       0.461600
      8 N01         -5.0740    -0.5800     1.0900 nb         1 HW8      -0.759000
      9 C08         -2.7780    -0.2010     0.4520 c3         1 HW8      -0.105700
     10 C4          -2.8790     1.3170     0.3530 c5         1 HW8      -0.089700
     11 C5          -3.2300     1.8720    -1.0270 c5         1 HW8       0.142800
     12 N1          -2.9370     3.2990    -0.9520 n7         1 HW8      -0.777200
     13 C3          -1.6010     2.0860     0.6870 c5         1 HW8       0.125100
     14 C2          -1.8260     3.4520    -0.0030 c5         1 HW8       0.110800
     15 O09         -0.4980     1.3910     0.1480 os         1 HW8      -0.409600
     16 C10          0.7530     1.8270     0.6220 c3         1 HW8       0.139400
     17 C11          1.8360     0.9090     0.0910 c3         1 HW8      -0.080400
     18 C12          3.2210     1.3300     0.5650 c3         1 HW8      -0.074400
     19 C13          4.3180     0.3930     0.0770 c3         1 HW8      -0.071400
     20 C14          5.7070     0.8190     0.5570 c3         1 HW8      -0.126700
     21 C26          6.7710    -0.1440     0.1190 ca         1 HW8       0.418600
     22 N21          6.8230    -1.3140     0.7550 nb         1 HW8      -0.675000
     23 C22          7.7280    -2.2080     0.3750 ca         1 HW8       0.406200
     24 C23          8.6320    -1.9940    -0.6550 ca         1 HW8      -0.252300
     25 C24          8.5820    -0.7780    -1.3190 ca         1 HW8      -0.089000
     26 C25          7.6390     0.1590    -0.9270 ca         1 HW8      -0.243300
     27 H1          -8.0480    -1.3780     1.8860 hn         1 HW8       0.413300
     28 H2          -6.9420    -0.3700     2.6730 hn         1 HW8       0.413300
     29 H3          -7.5430    -2.4330    -0.2460 ha         1 HW8       0.136000
     30 H4          -5.8100    -2.6400    -3.1480 hc         1 HW8       0.046367
     31 H5          -5.0210    -3.9590    -2.3030 hc         1 HW8       0.046367
     32 H6          -6.7630    -3.7190    -2.1320 hc         1 HW8       0.046367
     33 H7          -3.4870    -1.9140    -1.5490 ha         1 HW8       0.142000
     34 H8          -2.4150    -0.4750     1.4470 hc         1 HW8       0.062700
     35 H9          -2.0500    -0.5800    -0.2670 hc         1 HW8       0.062700
     36 H10         -3.6500     1.6550     1.0550 hc         1 HW8       0.067700
     37 H11         -2.6120     1.3920    -1.7940 h1         1 HW8       0.060200
     38 H12         -4.2720     1.7090    -1.3070 h1         1 HW8       0.060200
     39 H13         -3.7490     3.7660    -0.5740 hn         1 HW8       0.341800
     40 H15         -1.4700     2.1980     1.7720 h1         1 HW8       0.042700
     41 H16         -0.9120     3.7650    -0.5170 h1         1 HW8       0.050200
     42 H17         -2.0540     4.2320     0.7260 h1         1 HW8       0.050200
     43 H18          0.9590     2.8610     0.3110 h1         1 HW8       0.018200
     44 H19          0.7670     1.8230     1.7220 h1         1 HW8       0.018200
     45 H20          1.6320    -0.1160     0.4150 hc         1 HW8       0.053200
     46 H21          1.8060     0.9070    -1.0030 hc         1 HW8       0.053200
     47 H22          3.4320     2.3490     0.2230 hc         1 HW8       0.037200
     48 H23          3.2400     1.3650     1.6590 hc         1 HW8       0.037200
     49 H24          4.1160    -0.6240     0.4260 hc         1 HW8       0.048700
     50 H25          4.3080     0.3520    -1.0170 hc         1 HW8       0.048700
     51 H26          5.9330     1.8190     0.1810 hc         1 HW8       0.052700
     52 H27          5.7070     0.8780     1.6490 hc         1 HW8       0.052700
     53 H28          7.7370    -3.1450     0.9210 h4         1 HW8       0.017100
     54 H29          9.3480    -2.7580    -0.9230 ha         1 HW8       0.141000
     55 H30          9.2670    -0.5630    -2.1290 ha         1 HW8       0.136000
     56 H31          7.5750     1.1190    -1.4230 ha         1 HW8       0.140000
@<TRIPOS>BOND
     1     1     2 1   
     2     1    27 1   
     3     1    28 1   
     4     2     3 ar  
     5     2     8 ar  
     6     3     4 ar  
     7     3    29 1   
     8     4     5 1   
     9     4     6 ar  
    10     5    30 1   
    11     5    31 1   
    12     5    32 1   
    13     6     7 ar  
    14     6    33 1   
    15     7     8 ar  
    16     7     9 1   
    17     9    10 1   
    18     9    34 1   
    19     9    35 1   
    20    10    11 1   
    21    10    13 1   
    22    10    36 1   
    23    11    12 1   
    24    11    37 1   
    25    11    38 1   
    26    12    14 1   
    27    12    39 1   
    28    13    14 1   
    29    13    15 1   
    30    13    40 1   
    31    14    41 1   
    32    14    42 1   
    33    15    16 1   
    34    16    17 1   
    35    16    43 1   
    36    16    44 1   
    37    17    18 1   
    38    17    45 1   
    39    17    46 1   
    40    18    19 1   
    41    18    47 1   
    42    18    48 1   
    43    19    20 1   
    44    19    49 1   
    45    19    50 1   
    46    20    21 1   
    47    20    51 1   
    48    20    52 1   
    49    21    22 ar  
    50    21    26 ar  
    51    22    23 ar  
    52    23    24 ar  
    53    23    53 1   
    54    24    25 ar  
    55    24    54 1   
    56    25    26 ar  
    57    25    55 1   
    58    26    56 1   
@<TRIPOS>SUBSTRUCTURE
     1 HW8         1 TEMP              0 ****  ****    0 ROOT
