@<TRIPOS>MOLECULE
HW9
   59    61     1     0     0
SMALL
No Charge or Current Charge


@<TRIPOS>ATOM
      1 N02         -7.5320    -1.6110     1.8520 nv         1 HW9      -1.053900
      2 C02         -6.6200    -1.6440     0.8780 ca         1 HW9       0.597900
      3 C03         -6.8210    -2.2880    -0.3450 ca         1 HW9      -0.233000
      4 C04         -5.7900    -2.2480    -1.2960 ca         1 HW9       0.000700
      5 C05         -4.6210    -1.5520    -0.9500 ca         1 HW9      -0.216000
      6 C07         -5.9360    -2.9240    -2.6490 c3         1 HW9      -0.053800
      7 N01         -5.5270    -0.9810     1.2220 nb         1 HW9      -0.755000
      8 C06         -4.5280    -0.9340     0.3120 ca         1 HW9       0.395300
      9 C08         -3.2780    -0.1630     0.7110 c3         1 HW9      -0.107700
     10 C4          -3.3420     1.3520     0.3680 c5         1 HW9      -0.085700
     11 C3          -2.1100     2.2090     0.7940 c5         1 HW9       0.139300
     12 C2          -2.1920     3.4450    -0.1770 c5         1 HW9       0.098800
     13 N1          -3.3120     3.1720    -1.1260 n7         1 HW9      -0.823400
     14 C5          -3.4110     1.6950    -1.1410 c5         1 HW9       0.131800
     15 O09         -0.9020     1.4550     0.5080 os         1 HW9      -0.452000
     16 C10          0.3470     2.0230     0.9360 c3         1 HW9       0.163600
     17 C11          1.4640     1.0370     0.5440 c3         1 HW9      -0.081400
     18 C12          2.8700     1.5270     0.9540 c3         1 HW9      -0.073400
     19 C13          3.9920     0.5400     0.5620 c3         1 HW9      -0.072400
     20 C14          5.4000     1.0300     0.9710 c3         1 HW9      -0.125700
     21 C26          6.4960     0.0530     0.5710 ca         1 HW9       0.354300
     22 N21          6.9790    -0.7500     1.5470 nb         1 HW9      -0.674000
     23 C22          7.9510    -1.6310     1.2190 ca         1 HW9       0.341900
     24 C23          8.4710    -1.7460    -0.0810 ca         1 HW9      -0.171000
     25 C24          7.9710    -0.9170    -1.0990 ca         1 HW9      -0.034300
     26 C25          6.9630    -0.0000    -0.7560 ca         1 HW9      -0.162000
     27 C27          8.5050    -1.0040    -2.5190 c3         1 HW9      -0.052800
     28 H1          -8.4990    -1.7710     1.5910 hn         1 HW9       0.466500
     29 H2          -7.3620    -0.9270     2.5780 hn         1 HW9       0.466500
     30 H3          -7.7520    -2.8080    -0.5490 ha         1 HW9       0.118000
     31 H4          -3.7930    -1.4850    -1.6510 ha         1 HW9       0.122000
     32 H5          -6.3240    -2.2210    -3.3960 hc         1 HW9       0.046367
     33 H6          -4.9720    -3.3000    -3.0120 hc         1 HW9       0.046367
     34 H7          -6.6250    -3.7750    -2.5990 hc         1 HW9       0.046367
     35 H8          -3.1030    -0.2820     1.7870 hc         1 HW9       0.066200
     36 H9          -2.4110    -0.6220     0.2220 hc         1 HW9       0.066200
     37 H10         -4.2370     1.7350     0.8730 hc         1 HW9       0.067700
     38 H11         -2.1330     2.4830     1.8580 h1         1 HW9       0.032700
     39 H12         -2.3650     4.3800     0.3750 h1         1 HW9       0.060200
     40 H13         -1.2530     3.5680    -0.7340 h1         1 HW9       0.060200
     41 H14         -4.1800     3.5370    -0.7150 hn         1 HW9       0.398000
     42 H16         -2.5730     1.2460    -1.6950 h1         1 HW9       0.058700
     43 H17         -4.3480     1.3550    -1.6050 h1         1 HW9       0.058700
     44 H18          0.5290     2.9920     0.4530 h1         1 HW9       0.020700
     45 H19          0.3510     2.1700     2.0240 h1         1 HW9       0.020700
     46 H20          1.2660     0.0670     1.0170 hc         1 HW9       0.053200
     47 H21          1.4360     0.8810    -0.5410 hc         1 HW9       0.053200
     48 H22          3.0640     2.4990     0.4830 hc         1 HW9       0.037700
     49 H23          2.8930     1.6870     2.0390 hc         1 HW9       0.037700
     50 H24          3.8000    -0.4320     1.0340 hc         1 HW9       0.049200
     51 H25          3.9670     0.3780    -0.5230 hc         1 HW9       0.049200
     52 H26          5.5910     2.0030     0.5020 hc         1 HW9       0.052200
     53 H27          5.4190     1.2040     2.0540 hc         1 HW9       0.052200
     54 H28          8.3230    -2.2650     2.0230 h4         1 HW9       0.017100
     55 H29          9.2530    -2.4720    -0.2860 ha         1 HW9       0.121000
     56 H30          6.5430     0.6650    -1.5050 ha         1 HW9       0.120000
     57 H31          9.3370    -0.3060    -2.6670 hc         1 HW9       0.047367
     58 H32          8.8680    -2.0130    -2.7490 hc         1 HW9       0.047367
     59 H33          7.7270    -0.7590    -3.2530 hc         1 HW9       0.047367
@<TRIPOS>BOND
     1     1     2 1   
     2     1    28 1   
     3     1    29 1   
     4     2     3 ar  
     5     2     7 ar  
     6     3     4 ar  
     7     3    30 1   
     8     4     5 ar  
     9     4     6 1   
    10     5     8 ar  
    11     5    31 1   
    12     6    32 1   
    13     6    33 1   
    14     6    34 1   
    15     7     8 ar  
    16     8     9 1   
    17     9    10 1   
    18     9    35 1   
    19     9    36 1   
    20    10    11 1   
    21    10    14 1   
    22    10    37 1   
    23    11    12 1   
    24    11    15 1   
    25    11    38 1   
    26    12    13 1   
    27    12    39 1   
    28    12    40 1   
    29    13    14 1   
    30    13    41 1   
    31    14    42 1   
    32    14    43 1   
    33    15    16 1   
    34    16    17 1   
    35    16    44 1   
    36    16    45 1   
    37    17    18 1   
    38    17    46 1   
    39    17    47 1   
    40    18    19 1   
    41    18    48 1   
    42    18    49 1   
    43    19    20 1   
    44    19    50 1   
    45    19    51 1   
    46    20    21 1   
    47    20    52 1   
    48    20    53 1   
    49    21    22 ar  
    50    21    26 ar  
    51    22    23 ar  
    52    23    24 ar  
    53    23    54 1   
    54    24    25 ar  
    55    24    55 1   
    56    25    26 ar  
    57    25    27 1   
    58    26    56 1   
    59    27    57 1   
    60    27    58 1   
    61    27    59 1   
@<TRIPOS>SUBSTRUCTURE
     1 HW9         1 TEMP              0 ****  ****    0 ROOT
