@<TRIPOS>MOLECULE
HW9
   59    61     1     0     0
SMALL
abcg2


@<TRIPOS>ATOM
      1 N02         -6.7150    -2.2050     2.1760 nv         1 HW9      -1.053900
      2 C02         -6.1440    -1.9080     0.9710 ca         1 HW9       0.597900
      3 C03         -6.7510    -2.3180    -0.2290 ca         1 HW9      -0.233000
      4 C04         -6.1240    -2.0390    -1.4260 ca         1 HW9       0.000700
      5 C05         -4.8990    -1.3630    -1.3850 ca         1 HW9      -0.216000
      6 C07         -6.7360    -2.4310    -2.7360 c3         1 HW9      -0.053800
      7 N01         -4.9840    -1.2620     0.9950 nb         1 HW9      -0.755000
      8 C06         -4.3720    -0.9970    -0.1610 ca         1 HW9       0.395300
      9 C08         -3.0690    -0.2540    -0.0680 c3         1 HW9      -0.107700
     10 C4          -3.2800     1.1750     0.4320 c5         1 HW9      -0.085700
     11 C3          -1.9860     2.0150     0.5890 c5         1 HW9       0.139300
     12 C2          -2.2380     3.2540    -0.2960 c5         1 HW9       0.098800
     13 N1          -3.6790     3.3930    -0.4240 n7         1 HW9      -0.823400
     14 C5          -4.1510     2.0180    -0.5180 c5         1 HW9       0.131800
     15 O09         -0.8490     1.2720     0.2320 os         1 HW9      -0.452000
     16 C10          0.3740     1.9290     0.4750 c3         1 HW9       0.163600
     17 C11          1.5050     0.9270     0.3550 c3         1 HW9      -0.081400
     18 C12          2.8720     1.5760     0.5370 c3         1 HW9      -0.073400
     19 C13          4.0080     0.5640     0.4640 c3         1 HW9      -0.072400
     20 C14          5.3860     1.2040     0.6350 c3         1 HW9      -0.125700
     21 C26          6.4820     0.1810     0.5610 ca         1 HW9       0.354300
     22 N21          6.6320    -0.6200     1.6140 nb         1 HW9      -0.674000
     23 C22          7.5650    -1.5640     1.5510 ca         1 HW9       0.341900
     24 C23          8.3870    -1.7630     0.4550 ca         1 HW9      -0.171000
     25 C24          8.2460    -0.9310    -0.6530 ca         1 HW9      -0.034300
     26 C25          7.2690     0.0540    -0.5810 ca         1 HW9      -0.162000
     27 C27          9.1200    -1.0870    -1.8590 c3         1 HW9      -0.052800
     28 H1          -7.7000    -2.4080     2.1840 hn         1 HW9       0.466500
     29 H2          -6.4050    -1.6530     2.9590 hn         1 HW9       0.466500
     30 H3          -7.6970    -2.8470    -0.2060 ha         1 HW9       0.118000
     31 H4          -4.3700    -1.1290    -2.3000 ha         1 HW9       0.122000
     32 H5          -7.1060    -1.5500    -3.2650 hc         1 HW9       0.046367
     33 H6          -6.0020    -2.9080    -3.3850 hc         1 HW9       0.046367
     34 H7          -7.5720    -3.1160    -2.6050 hc         1 HW9       0.046367
     35 H8          -2.4000    -0.7930     0.6080 hc         1 HW9       0.066200
     36 H9          -2.5900    -0.2360    -1.0490 hc         1 HW9       0.066200
     37 H10         -3.7760     1.1200     1.4040 hc         1 HW9       0.067700
     38 H11         -1.8890     2.3350     1.6370 h1         1 HW9       0.032700
     39 H12         -1.7890     4.1680     0.0940 h1         1 HW9       0.060200
     40 H13         -1.8100     3.0700    -1.2890 h1         1 HW9       0.060200
     41 H14         -4.0470     3.8080     0.4250 hn         1 HW9       0.398000
     42 H16         -4.0150     1.6720    -1.5500 h1         1 HW9       0.058700
     43 H17         -5.2160     1.9510    -0.2950 h1         1 HW9       0.058700
     44 H18          0.5280     2.7530    -0.2360 h1         1 HW9       0.020700
     45 H19          0.3770     2.3760     1.4810 h1         1 HW9       0.020700
     46 H20          1.3700     0.1400     1.1040 hc         1 HW9       0.053200
     47 H21          1.4600     0.4420    -0.6250 hc         1 HW9       0.053200
     48 H22          3.0190     2.3430    -0.2300 hc         1 HW9       0.037700
     49 H23          2.9090     2.0950     1.5010 hc         1 HW9       0.037700
     50 H24          3.8700    -0.1990     1.2360 hc         1 HW9       0.049200
     51 H25          3.9700     0.0410    -0.4970 hc         1 HW9       0.049200
     52 H26          5.5350     1.9640    -0.1360 hc         1 HW9       0.052200
     53 H27          5.4300     1.7160     1.6010 hc         1 HW9       0.052200
     54 H28          7.6650    -2.2000     2.4240 h4         1 HW9       0.017100
     55 H29          9.1250    -2.5550     0.4690 ha         1 HW9       0.121000
     56 H30          7.1120     0.7300    -1.4130 ha         1 HW9       0.120000
     57 H31         10.1360    -0.7560    -1.6430 hc         1 HW9       0.047367
     58 H32          9.1820    -2.1310    -2.1670 hc         1 HW9       0.047367
     59 H33          8.7510    -0.5030    -2.7010 hc         1 HW9       0.047367
@<TRIPOS>BOND
     1     1     2 1   
     2     1    28 1   
     3     1    29 1   
     4     2     3 ar  
     5     2     7 ar  
     6     3     4 ar  
     7     3    30 1   
     8     4     5 ar  
     9     4     6 1   
    10     5     8 ar  
    11     5    31 1   
    12     6    32 1   
    13     6    33 1   
    14     6    34 1   
    15     7     8 ar  
    16     8     9 1   
    17     9    10 1   
    18     9    35 1   
    19     9    36 1   
    20    10    11 1   
    21    10    14 1   
    22    10    37 1   
    23    11    12 1   
    24    11    15 1   
    25    11    38 1   
    26    12    13 1   
    27    12    39 1   
    28    12    40 1   
    29    13    14 1   
    30    13    41 1   
    31    14    42 1   
    32    14    43 1   
    33    15    16 1   
    34    16    17 1   
    35    16    44 1   
    36    16    45 1   
    37    17    18 1   
    38    17    46 1   
    39    17    47 1   
    40    18    19 1   
    41    18    48 1   
    42    18    49 1   
    43    19    20 1   
    44    19    50 1   
    45    19    51 1   
    46    20    21 1   
    47    20    52 1   
    48    20    53 1   
    49    21    22 ar  
    50    21    26 ar  
    51    22    23 ar  
    52    23    24 ar  
    53    23    54 1   
    54    24    25 ar  
    55    24    55 1   
    56    25    26 ar  
    57    25    27 1   
    58    26    56 1   
    59    27    57 1   
    60    27    58 1   
    61    27    59 1   
@<TRIPOS>SUBSTRUCTURE
     1 HW9         1 TEMP              0 ****  ****    0 ROOT
