@<TRIPOS>MOLECULE
HWA
   18    18     1     0     0
SMALL
No Charge or Current Charge


@<TRIPOS>ATOM
      1 OAF         -3.0090    -0.2020     0.0810 o          1 HWA      -0.700500
      2 CAE         -2.1460     0.6660     0.0970 c          1 HWA       0.724200
      3 OAK         -2.4390     1.8560     0.1510 o          1 HWA      -0.700500
      4 CAD         -0.6650     0.3330     0.0510 cc         1 HWA      -0.013200
      5 NAC          0.3350     1.3600     0.0700 na         1 HWA      -0.568000
      6 CAB          1.7210     1.1320     0.0310 cc         1 HWA       0.125800
      7 CAA          2.6590     2.3080     0.0570 c3         1 HWA      -0.059900
      8 CAG          2.1270    -0.1720    -0.0310 cd         1 HWA      -0.424200
      9 CAH          1.2480    -1.3080    -0.0570 c          1 HWA       0.528500
     10 OAL          1.6660    -2.4610    -0.1130 o          1 HWA      -0.685100
     11 CAI         -0.1830    -0.9750    -0.0120 cd         1 HWA      -0.035100
     12 OAJ         -0.9530    -2.0990    -0.0410 oh         1 HWA      -0.497100
     13 H2           0.0020     2.3260     0.1160 hn         1 HWA       0.534000
     14 H3           2.5220     2.8960     0.9720 hc         1 HWA       0.044033
     15 H4           3.7060     1.9840     0.0220 hc         1 HWA       0.044033
     16 H5           2.4840     2.9670    -0.8010 hc         1 HWA       0.044033
     17 H6           3.1800    -0.4260    -0.0640 ha         1 HWA       0.180000
     18 H7          -0.3130    -2.8490    -0.0850 ho         1 HWA       0.461000
@<TRIPOS>BOND
     1     1     2 1   
     2     2     3 1   
     3     2     4 1   
     4     4     5 1   
     5     4    11 2   
     6     5     6 1   
     7     5    13 1   
     8     6     7 1   
     9     6     8 2   
    10     7    14 1   
    11     7    15 1   
    12     7    16 1   
    13     8     9 1   
    14     8    17 1   
    15     9    10 2   
    16     9    11 1   
    17    11    12 1   
    18    12    18 1   
@<TRIPOS>SUBSTRUCTURE
     1 HWA         1 TEMP              0 ****  ****    0 ROOT
