@<TRIPOS>MOLECULE
HWA
   18    18     1     0     0
SMALL
abcg2


@<TRIPOS>ATOM
      1 OAF         -2.8990    -0.0250    -0.2590 o          1 HWA      -0.700500
      2 CAE         -2.0110     0.7630     0.0860 c          1 HWA       0.724200
      3 OAK         -2.1170     1.9810     0.3730 o          1 HWA      -0.700500
      4 CAD         -0.5890     0.2710     0.0460 cc         1 HWA      -0.013200
      5 NAC          0.3410     1.2730     0.0450 na         1 HWA      -0.568000
      6 CAB          1.6470     1.0910     0.0030 cc         1 HWA       0.125800
      7 CAA          2.5240     2.3080     0.0250 c3         1 HWA      -0.059900
      8 CAG          2.1530    -0.1890    -0.0460 cd         1 HWA      -0.424200
      9 CAH          1.2920    -1.3300    -0.0350 c          1 HWA       0.528500
     10 OAL          1.6640    -2.5210    -0.0310 o          1 HWA      -0.685100
     11 CAI         -0.1350    -1.0290     0.0080 cd         1 HWA      -0.035100
     12 OAJ         -0.9530    -2.0910     0.0090 oh         1 HWA      -0.497100
     13 H2          -0.0590     2.2010     0.1400 hn         1 HWA       0.534000
     14 H3           2.4200     2.7970     0.9980 hc         1 HWA       0.044033
     15 H4           3.5670     2.0220    -0.0990 hc         1 HWA       0.044033
     16 H5           2.2560     3.0340    -0.7420 hc         1 HWA       0.044033
     17 H6           3.2110    -0.3530    -0.0790 ha         1 HWA       0.180000
     18 H7          -0.3720    -2.8680     0.0030 ho         1 HWA       0.461000
@<TRIPOS>BOND
     1     1     2 1   
     2     2     3 1   
     3     2     4 1   
     4     4     5 1   
     5     4    11 2   
     6     5     6 1   
     7     5    13 1   
     8     6     7 1   
     9     6     8 2   
    10     7    14 1   
    11     7    15 1   
    12     7    16 1   
    13     8     9 1   
    14     8    17 1   
    15     9    10 2   
    16     9    11 1   
    17    11    12 1   
    18    12    18 1   
@<TRIPOS>SUBSTRUCTURE
     1 HWA         1 TEMP              0 ****  ****    0 ROOT
