@<TRIPOS>MOLECULE
HWB
   32    34     1     0     0
SMALL
No Charge or Current Charge


@<TRIPOS>ATOM
      1 O01         -4.9650    -2.5400     0.2900 oh         1 HWB      -0.195000
      2 C02         -4.1190    -1.4800     0.1810 ca         1 HWB       0.256000
      3 C03         -4.6360    -0.1910     0.0100 ca         1 HWB      -0.287000
      4 C04         -3.7770     0.9130    -0.1040 ca         1 HWB       0.223000
      5 O05         -4.3140     2.1570    -0.2690 oh         1 HWB      -0.214000
      6 C06         -2.3770     0.7320    -0.0470 ca         1 HWB      -0.186000
      7 C07         -1.4940     1.8060    -0.1530 c2         1 HWB       0.069000
      8 C08         -0.1650     1.5720    -0.0970 c2         1 HWB      -0.022000
      9 O09          0.6800     2.6210    -0.1880 oh         1 HWB      -0.216000
     10 C10          0.3020     0.3130     0.0610 c2         1 HWB       0.184000
     11 O11         -0.5150    -0.7750     0.1830 os         1 HWB      -0.049000
     12 C12         -1.8710    -0.5750     0.1260 ca         1 HWB       0.181000
     13 C13         -2.7340    -1.6730     0.2390 ca         1 HWB      -0.307000
     14 C14          1.6550     0.0210     0.1170 ca         1 HWB      -0.138000
     15 C15          2.2030    -0.5580     1.2800 ca         1 HWB      -0.047000
     16 C16          3.5730    -0.8680     1.3410 ca         1 HWB      -0.196000
     17 C17          4.4060    -0.6090     0.2400 ca         1 HWB       0.080000
     18 O18          5.7370    -0.9160     0.3100 oh         1 HWB      -0.242000
     19 C19          3.8640    -0.0410    -0.9320 ca         1 HWB       0.085000
     20 O20          4.6580     0.2110    -2.0150 oh         1 HWB      -0.229000
     21 C21          2.4940     0.2700    -0.9920 ca         1 HWB      -0.113000
     22 H1          -4.4320    -3.3470     0.4020 ho         1 HWB       0.261000
     23 H2          -5.7140    -0.0540    -0.0340 ha         1 HWB       0.186000
     24 H3          -5.2840     2.0740    -0.2830 ho         1 HWB       0.269000
     25 H4          -1.8480     2.8310    -0.2770 ha         1 HWB       0.203000
     26 H5           1.5900     2.2830    -0.0860 ho         1 HWB       0.259000
     27 H6          -2.3220    -2.6700     0.3710 ha         1 HWB       0.183000
     28 H7           1.5670    -0.7640     2.1410 ha         1 HWB       0.152000
     29 H8           3.9830    -1.3100     2.2480 ha         1 HWB       0.159000
     30 H9           5.9240    -1.2970     1.1870 ho         1 HWB       0.261000
     31 H10          5.5670    -0.0670    -1.7970 ho         1 HWB       0.262000
     32 H11          2.0850     0.6960    -1.9070 ha         1 HWB       0.171000
@<TRIPOS>BOND
     1     1     2 1   
     2     1    22 1   
     3     2     3 ar  
     4     2    13 ar  
     5     3     4 ar  
     6     3    23 1   
     7     4     5 1   
     8     4     6 ar  
     9     5    24 1   
    10     6     7 1   
    11     6    12 ar  
    12     7     8 1   
    13     7    25 1   
    14     8     9 1   
    15     8    10 1   
    16     9    26 1   
    17    10    11 1   
    18    10    14 1   
    19    11    12 1   
    20    12    13 ar  
    21    13    27 1   
    22    14    15 ar  
    23    14    21 ar  
    24    15    16 ar  
    25    15    28 1   
    26    16    17 ar  
    27    16    29 1   
    28    17    18 1   
    29    17    19 ar  
    30    18    30 1   
    31    19    20 1   
    32    19    21 ar  
    33    20    31 1   
    34    21    32 1   
@<TRIPOS>SUBSTRUCTURE
     1 HWB         1 TEMP              0 ****  ****    0 ROOT
