@<TRIPOS>MOLECULE
HWB
   32    34     1     0     0
SMALL
abcg2


@<TRIPOS>ATOM
      1 O01         -4.8280    -2.4740     0.7270 oh         1 HWB      -0.195000
      2 C02         -4.0080    -1.4720     0.4470 ca         1 HWB       0.256000
      3 C03         -4.6220    -0.2550     0.0840 ca         1 HWB      -0.287000
      4 C04         -3.8590     0.8400    -0.2250 ca         1 HWB       0.223000
      5 O05         -4.3540     2.0210    -0.5730 oh         1 HWB      -0.214000
      6 C06         -2.4360     0.7490    -0.1760 ca         1 HWB      -0.186000
      7 C07         -1.5760     1.8110    -0.4250 c2         1 HWB       0.069000
      8 C08         -0.2000     1.6460    -0.3510 c2         1 HWB      -0.022000
      9 O09          0.5760     2.7160    -0.5750 oh         1 HWB      -0.216000
     10 C10          0.3000     0.3840    -0.0450 c2         1 HWB       0.184000
     11 O11         -0.5440    -0.5990     0.2270 os         1 HWB      -0.049000
     12 C12         -1.8750    -0.4910     0.1890 ca         1 HWB       0.181000
     13 C13         -2.6260    -1.6030     0.5050 ca         1 HWB      -0.307000
     14 C14          1.6950     0.0100     0.0650 ca         1 HWB      -0.138000
     15 C15          2.0910    -0.9240     1.0250 ca         1 HWB      -0.047000
     16 C16          3.4220    -1.2810     1.1300 ca         1 HWB      -0.196000
     17 C17          4.3700    -0.7370     0.2740 ca         1 HWB       0.080000
     18 O18          5.6730    -1.0380     0.3090 oh         1 HWB      -0.242000
     19 C19          3.9780     0.1880    -0.7100 ca         1 HWB       0.085000
     20 O20          4.8610     0.7160    -1.5730 oh         1 HWB      -0.229000
     21 C21          2.6510     0.5570    -0.8040 ca         1 HWB      -0.113000
     22 H1          -4.3420    -3.2730     0.9670 ho         1 HWB       0.261000
     23 H2          -5.7040    -0.2020     0.0530 ha         1 HWB       0.186000
     24 H3          -5.3190     2.0160    -0.5640 ho         1 HWB       0.269000
     25 H4          -1.9660     2.7930    -0.6630 ha         1 HWB       0.203000
     26 H5           1.4240     2.6470    -0.1170 ho         1 HWB       0.259000
     27 H6          -2.1510    -2.5350     0.7830 ha         1 HWB       0.183000
     28 H7           1.3770    -1.3570     1.7120 ha         1 HWB       0.152000
     29 H8           3.7280    -1.9900     1.8900 ha         1 HWB       0.159000
     30 H9           5.8670    -1.6990     0.9850 ho         1 HWB       0.261000
     31 H10          5.7480     0.3690    -1.4190 ho         1 HWB       0.262000
     32 H11          2.3700     1.2290    -1.6050 ha         1 HWB       0.171000
@<TRIPOS>BOND
     1     1     2 1   
     2     1    22 1   
     3     2     3 1   
     4     2    13 1   
     5     3     4 1   
     6     3    23 1   
     7     4     5 1   
     8     4     6 1   
     9     5    24 1   
    10     6     7 1   
    11     6    12 1   
    12     7     8 1   
    13     7    25 1   
    14     8     9 1   
    15     8    10 1   
    16     9    26 1   
    17    10    11 1   
    18    10    14 1   
    19    11    12 1   
    20    12    13 1   
    21    13    27 1   
    22    14    15 1   
    23    14    21 1   
    24    15    16 1   
    25    15    28 1   
    26    16    17 1   
    27    16    29 1   
    28    17    18 1   
    29    17    19 1   
    30    18    30 1   
    31    19    20 1   
    32    19    21 1   
    33    20    31 1   
    34    21    32 1   
@<TRIPOS>SUBSTRUCTURE
     1 HWB         1 TEMP              0 ****  ****    0 ROOT
