@<TRIPOS>MOLECULE
HWC
   17    17     1     0     0
SMALL
bcc


@<TRIPOS>ATOM
      1 C4         -26.8330    45.8910    10.9610 cc         1 HWC      -0.176000
      2 C5         -26.3480    44.8410    11.6890 cd         1 HWC       0.066800
      3 C6         -25.1210    44.1550    11.2770 c          1 HWC       0.679700
      4 N1         -24.5370    44.6160    10.1270 n          1 HWC      -0.325000
      5 N2         -26.9470    44.3370    12.8010 nv         1 HWC      -0.836600
      6 C3         -26.1440    46.3050     9.7970 cc         1 HWC      -0.081300
      7 C1         -23.2910    44.0060     9.6770 c3         1 HWC       0.070300
      8 C2         -25.0170    45.6750     9.4020 cd         1 HWC      -0.018400
      9 BR1        -26.8120    47.7460     8.7860 br         1 HWC      -0.066700
     10 O1         -24.6480    43.2260    11.9290 o          1 HWC      -0.646500
     11 H5         -27.7400    46.3930    11.2740 ha         1 HWC       0.150000
     12 H7         -26.3830    43.7590    13.4020 hn         1 HWC       0.422800
     13 H6         -27.6320    44.9040    13.2710 hn         1 HWC       0.422800
     14 H3         -23.1960    43.0090    10.0910 h1         1 HWC       0.057700
     15 H1         -23.2950    43.9400     8.5920 h1         1 HWC       0.057700
     16 H2         -22.4380    44.6050     9.9950 h1         1 HWC       0.057700
     17 H4         -24.4530    45.9440     8.5220 h4         1 HWC       0.165000
@<TRIPOS>BOND
     1     1     2 2   
     2     1     6 1   
     3     1    11 1   
     4     2     3 1   
     5     2     5 1   
     6     3     4 1   
     7     3    10 2   
     8     4     7 1   
     9     4     8 1   
    10     5    12 1   
    11     5    13 1   
    12     6     8 2   
    13     6     9 1   
    14     7    14 1   
    15     7    15 1   
    16     7    16 1   
    17     8    17 1   
@<TRIPOS>SUBSTRUCTURE
     1 HWC         1 TEMP              0 ****  ****    0 ROOT
