@<TRIPOS>MOLECULE
HWC
   17    17     1     0     0
SMALL
No Charge or Current Charge


@<TRIPOS>ATOM
      1 C4         -26.8540    45.9000    10.9760 cc         1 HWC      -0.226000
      2 C5         -26.3090    44.9040    11.7480 cd         1 HWC       0.066800
      3 C6         -25.0360    44.1840    11.3340 c          1 HWC       0.537200
      4 N1         -24.4780    44.6250    10.1090 n          1 HWC      -0.258000
      5 N2         -26.8850    44.4990    12.9440 nv         1 HWC      -0.947000
      6 C3         -26.2250    46.2860     9.7480 cc         1 HWC      -0.081300
      7 C1         -23.2350    43.9750     9.6330 c3         1 HWC       0.070300
      8 C2         -25.0680    45.6440     9.3550 cd         1 HWC      -0.068400
      9 Br1        -26.9680    47.6520     8.6830 br         1 HWC      -0.066700
     10 O1         -24.5200    43.2880    12.0010 o          1 HWC      -0.571000
     11 H5         -27.7650    46.4090    11.2800 ha         1 HWC       0.200000
     12 H7         -26.4560    43.7550    13.4970 hn         1 HWC       0.478000
     13 H6         -27.7400    44.9250    13.3010 hn         1 HWC       0.478000
     14 H3         -23.4100    42.9010     9.4940 h1         1 HWC       0.057700
     15 H1         -22.9090    44.4060     8.6780 h1         1 HWC       0.057700
     16 H2         -22.4380    44.1150    10.3740 h1         1 HWC       0.057700
     17 H4         -24.5380    45.8850     8.4370 h4         1 HWC       0.215000
@<TRIPOS>BOND
     1     1     2 2   
     2     1     6 1   
     3     1    11 1   
     4     2     3 1   
     5     2     5 1   
     6     3     4 1   
     7     3    10 2   
     8     4     7 1   
     9     4     8 1   
    10     5    12 1   
    11     5    13 1   
    12     6     8 2   
    13     6     9 1   
    14     7    14 1   
    15     7    15 1   
    16     7    16 1   
    17     8    17 1   
@<TRIPOS>SUBSTRUCTURE
     1 HWC         1 TEMP              0 ****  ****    0 ROOT
