@<TRIPOS>MOLECULE
HWD
   22    22     1     0     0
SMALL
No Charge or Current Charge


@<TRIPOS>ATOM
      1 N1           0.0670    -0.4940    -0.5380 n          1 HWD      -0.298000
      2 C2          -1.1090    -0.1270    -1.2320 c          1 HWD       0.606000
      3 O2          -2.2020    -0.0320    -0.6970 o          1 HWD      -0.539000
      4 N3          -0.9670     0.1330    -2.5610 ns         1 HWD      -0.475500
      5 C4           0.1610     0.0700    -3.3100 c          1 HWD       0.596200
      6 O4           0.1680     0.3270    -4.5000 o          1 HWD      -0.567000
      7 C5           1.3400    -0.3360    -2.5540 cc         1 HWD      -0.430200
      8 C6           1.2820    -0.6150    -1.2080 cd         1 HWD       0.021600
      9 C7          -0.0240    -0.8210     0.9100 c3         1 HWD       0.066000
     10 C8           0.1550     0.4030     1.8510 c3         1 HWD       0.003500
     11 N8           1.4630     1.1250     1.5910 n8         1 HWD      -0.989200
     12 C9          -0.1230    -0.0340     3.3420 c          1 HWD       0.726000
     13 O91          0.6020    -0.8840     3.8450 o          1 HWD      -0.715000
     14 O92         -1.0230     0.5260     3.9530 o          1 HWD      -0.715000
     15 H3          -1.8060     0.4030    -3.0490 hn         1 HWD       0.329500
     16 H5           2.2630    -0.4100    -3.1190 ha         1 HWD       0.210000
     17 H6           2.1220    -0.9330    -0.5930 h4         1 HWD       0.205000
     18 H71          0.7360    -1.5750     1.1530 h1         1 HWD       0.071700
     19 H72         -0.9970    -1.2870     1.1160 h1         1 HWD       0.071700
     20 H8          -0.6490     1.1080     1.5960 h1         1 HWD       0.068700
     21 H81          2.2440     0.5230     1.8780 hn         1 HWD       0.378000
     22 H82          1.5890     1.2370     0.5780 hn         1 HWD       0.378000
@<TRIPOS>BOND
     1     1     2 1   
     2     1     8 1   
     3     1     9 1   
     4     2     3 2   
     5     2     4 1   
     6     4     5 1   
     7     4    15 1   
     8     5     6 2   
     9     5     7 1   
    10     7     8 2   
    11     7    16 1   
    12     8    17 1   
    13     9    10 1   
    14     9    18 1   
    15     9    19 1   
    16    10    11 1   
    17    10    12 1   
    18    10    20 1   
    19    11    21 1   
    20    11    22 1   
    21    12    13 1   
    22    12    14 1   
@<TRIPOS>SUBSTRUCTURE
     1 HWD         1 TEMP              0 ****  ****    0 ROOT
