@<TRIPOS>MOLECULE
HWD
   22    22     1     0     0
SMALL
abcg2


@<TRIPOS>ATOM
      1 N1          -0.0130    -0.5440    -0.5220 n          1 HWD      -0.298000
      2 C2          -1.1090    -0.0230    -1.1760 c          1 HWD       0.606000
      3 O2          -2.1720     0.1770    -0.6260 o          1 HWD      -0.539000
      4 N3          -0.9090     0.2510    -2.5050 ns         1 HWD      -0.475500
      5 C4           0.2490     0.0840    -3.2490 c          1 HWD       0.596200
      6 O4           0.2740     0.3810    -4.4300 o          1 HWD      -0.567000
      7 C5           1.3430    -0.4570    -2.4850 cc         1 HWD      -0.430200
      8 C6           1.1630    -0.7380    -1.1810 cd         1 HWD       0.021600
      9 C7          -0.1120    -0.8230     0.9090 c3         1 HWD       0.066000
     10 C8           0.1400     0.4180     1.7820 c3         1 HWD       0.003500
     11 N8           1.3880     1.1000     1.5220 n8         1 HWD      -0.989200
     12 C9           0.0310    -0.0460     3.2560 c          1 HWD       0.726000
     13 O91          1.0630    -0.0090     3.9480 o          1 HWD      -0.715000
     14 O92         -1.0960    -0.4520     3.6050 o          1 HWD      -0.715000
     15 H3          -1.7140     0.6250    -2.9920 hn         1 HWD       0.329500
     16 H5           2.2950    -0.6390    -2.9590 ha         1 HWD       0.210000
     17 H6           1.9630    -1.1550    -0.5860 h4         1 HWD       0.205000
     18 H71          0.6300    -1.5920     1.1290 h1         1 HWD       0.071700
     19 H72         -1.0920    -1.2430     1.1160 h1         1 HWD       0.071700
     20 H8          -0.6750     1.1250     1.5960 h1         1 HWD       0.068700
     21 H81          2.1720     0.5040     1.7520 hn         1 HWD       0.378000
     22 H82          1.4730     1.3620     0.5490 hn         1 HWD       0.378000
@<TRIPOS>BOND
     1     1     2 1   
     2     1     8 1   
     3     1     9 1   
     4     2     3 2   
     5     2     4 1   
     6     4     5 1   
     7     4    15 1   
     8     5     6 2   
     9     5     7 1   
    10     7     8 2   
    11     7    16 1   
    12     8    17 1   
    13     9    10 1   
    14     9    18 1   
    15     9    19 1   
    16    10    11 1   
    17    10    12 1   
    18    10    20 1   
    19    11    21 1   
    20    11    22 1   
    21    12    13 1   
    22    12    14 1   
@<TRIPOS>SUBSTRUCTURE
     1 HWD         1 TEMP              0 ****  ****    0 ROOT
