@<TRIPOS>MOLECULE
HWE
   80    81     1     0     0
SMALL
bcc


@<TRIPOS>ATOM
      1 C1          -1.1610     2.5340    -1.3500 c3         1 HWE      -0.196400
      2 N1           3.7950     2.4860     0.9830 ns         1 HWE      -0.563900
      3 O1           3.8800     2.3780    -1.2720 o          1 HWE      -0.605100
      4 C2           0.0890     2.8290    -2.1470 c          1 HWE       0.669100
      5 O2          -0.0140     3.1080    -3.3440 o          1 HWE      -0.630100
      6 O3          -1.2640    -1.2220     0.3510 o          1 HWE      -0.629100
      7 C4           1.2460     0.8900     0.1150 c3         1 HWE      -0.081700
      8 C5           1.7310    -0.1530    -0.8790 c3         1 HWE      -0.095600
      9 C6           1.5440     0.5020     1.5590 c3         1 HWE      -0.095600
     10 C7           3.2380     2.4140    -0.2300 c          1 HWE       0.662100
     11 C13          3.6560    -2.8770     0.8330 c3         1 HWE      -0.080400
     12 C14          2.7300    -3.5560    -0.1730 c3         1 HWE      -0.073400
     13 C15          1.3160    -3.7350     0.3860 c3         1 HWE      -0.077400
     14 C16          0.2170    -3.8240    -0.6680 c3         1 HWE      -0.068400
     15 C17         -1.1880    -3.9730    -0.0610 c3         1 HWE      -0.059400
     16 C18         -2.2570    -3.1210    -0.7350 c3         1 HWE      -0.158400
     17 C19         -2.9240     0.6300    -1.0140 c3         1 HWE       0.126700
     18 C20         -2.0990    -1.6380    -0.4410 c          1 HWE       0.666100
     19 C21         -3.0860     1.1660     0.4170 c3         1 HWE      -0.037100
     20 C22         -4.3140     0.6030     1.0790 ca         1 HWE      -0.079300
     21 C23         -4.2390    -0.4850     1.9460 ca         1 HWE      -0.124500
     22 C24         -5.3850    -1.0100     2.5290 ca         1 HWE      -0.130000
     23 C25         -6.6280    -0.4540     2.2540 ca         1 HWE      -0.129000
     24 C26         -6.7150     0.6330     1.3930 ca         1 HWE      -0.130000
     25 C27         -5.5660     1.1540     0.8140 ca         1 HWE      -0.124500
     26 C           -1.7100     1.1660    -1.8080 c3         1 HWE       0.142100
     27 O           -2.1180     1.2000    -3.1580 oh         1 HWE      -0.616800
     28 N2          -2.9500    -0.8220    -1.0930 ns         1 HWE      -0.564900
     29 N            1.3010     2.7240    -1.5820 ns         1 HWE      -0.560900
     30 C3           1.7040     2.3240    -0.2480 c3         1 HWE       0.043700
     31 C8           5.2190     2.3650     1.2430 c3         1 HWE       0.101000
     32 C9           5.6370     0.9720     1.7120 c3         1 HWE      -0.095400
     33 C10          5.3830    -0.1290     0.6900 c3         1 HWE      -0.083400
     34 C11          5.7860    -1.5290     1.1530 c3         1 HWE      -0.072400
     35 C12          5.0830    -2.6270     0.3450 c3         1 HWE      -0.073400
     36 H1          -0.9770     2.5390    -0.2780 hc         1 HWE       0.073200
     37 H2          -1.8930     3.3190    -1.5550 hc         1 HWE       0.073200
     38 H3           3.1900     2.5480     1.7860 hn         1 HWE       0.313500
     39 H4           0.1600     0.9000     0.0570 hc         1 HWE       0.067700
     40 H5           2.8130    -0.2770    -0.8690 hc         1 HWE       0.043200
     41 H6           1.2890    -1.1150    -0.6310 hc         1 HWE       0.043200
     42 H7           1.4370     0.0850    -1.9020 hc         1 HWE       0.043200
     43 H8           2.5980     0.2930     1.7440 hc         1 HWE       0.043200
     44 H9           1.2260     1.2800     2.2570 hc         1 HWE       0.043200
     45 H10          0.9870    -0.4010     1.8050 hc         1 HWE       0.043200
     46 H11          3.1980    -1.9210     1.1080 hc         1 HWE       0.037200
     47 H12          3.6910    -3.4620     1.7580 hc         1 HWE       0.037200
     48 H13          2.6900    -2.9360    -1.0750 hc         1 HWE       0.038200
     49 H14          3.1420    -4.5200    -0.4870 hc         1 HWE       0.038200
     50 H15          1.2820    -4.6150     1.0370 hc         1 HWE       0.041200
     51 H16          1.0850    -2.8790     1.0300 hc         1 HWE       0.041200
     52 H17          0.2620    -2.9220    -1.2870 hc         1 HWE       0.037700
     53 H18          0.4140    -4.6550    -1.3520 hc         1 HWE       0.037700
     54 H19         -1.5010    -5.0180    -0.1070 hc         1 HWE       0.046700
     55 H20         -1.1600    -3.7180     1.0010 hc         1 HWE       0.046700
     56 H21         -2.2500    -3.2750    -1.8180 hc         1 HWE       0.059200
     57 H22         -3.2540    -3.4260    -0.3980 hc         1 HWE       0.059200
     58 H23         -3.8100     0.9630    -1.5590 h1         1 HWE       0.068700
     59 H24         -2.2060     0.9630     1.0240 hc         1 HWE       0.061200
     60 H25         -3.1890     2.2510     0.3510 hc         1 HWE       0.061200
     61 H26         -3.2750    -0.9260     2.1670 ha         1 HWE       0.134000
     62 H27         -5.3080    -1.8550     3.2010 ha         1 HWE       0.130000
     63 H28         -7.5210    -0.8610     2.7100 ha         1 HWE       0.130000
     64 H29         -7.6770     1.0800     1.1780 ha         1 HWE       0.130000
     65 H30         -5.6420     2.0060     0.1460 ha         1 HWE       0.134000
     66 H31         -0.8990     0.4390    -1.6850 h1         1 HWE       0.049700
     67 H32         -1.4620     1.7030    -3.6590 ho         1 HWE       0.440000
     68 H33         -3.6020    -1.2360    -1.7390 hn         1 HWE       0.321500
     69 H34          2.0750     2.8280    -2.2280 hn         1 HWE       0.345500
     70 H35          1.2930     3.0160     0.4950 h1         1 HWE       0.058700
     71 H36          5.7560     2.6360     0.3350 h1         1 HWE       0.059700
     72 H37          5.4820     3.1020     2.0030 h1         1 HWE       0.059700
     73 H38          6.7010     1.0140     1.9630 hc         1 HWE       0.042200
     74 H39          5.1150     0.7290     2.6440 hc         1 HWE       0.042200
     75 H40          4.3210    -0.1370     0.4440 hc         1 HWE       0.048700
     76 H41          5.8980     0.1110    -0.2460 hc         1 HWE       0.048700
     77 H42          6.8720    -1.6370     1.0830 hc         1 HWE       0.036700
     78 H43          5.5380    -1.6530     2.2130 hc         1 HWE       0.036700
     79 H44          5.6550    -3.5580     0.3930 hc         1 HWE       0.040700
     80 H45          5.0700    -2.3380    -0.7120 hc         1 HWE       0.040700
@<TRIPOS>BOND
     1     1     4 1   
     2     1    26 1   
     3     1    36 1   
     4     1    37 1   
     5     2    10 1   
     6     2    31 1   
     7     2    38 1   
     8     3    10 2   
     9     4     5 2   
    10     4    29 1   
    11     6    18 2   
    12     7     8 1   
    13     7     9 1   
    14     7    30 1   
    15     7    39 1   
    16     8    40 1   
    17     8    41 1   
    18     8    42 1   
    19     9    43 1   
    20     9    44 1   
    21     9    45 1   
    22    10    30 1   
    23    11    12 1   
    24    11    35 1   
    25    11    46 1   
    26    11    47 1   
    27    12    13 1   
    28    12    48 1   
    29    12    49 1   
    30    13    14 1   
    31    13    50 1   
    32    13    51 1   
    33    14    15 1   
    34    14    52 1   
    35    14    53 1   
    36    15    16 1   
    37    15    54 1   
    38    15    55 1   
    39    16    18 1   
    40    16    56 1   
    41    16    57 1   
    42    17    19 1   
    43    17    26 1   
    44    17    28 1   
    45    17    58 1   
    46    18    28 1   
    47    19    20 1   
    48    19    59 1   
    49    19    60 1   
    50    20    21 ar  
    51    20    25 ar  
    52    21    22 ar  
    53    21    61 1   
    54    22    23 ar  
    55    22    62 1   
    56    23    24 ar  
    57    23    63 1   
    58    24    25 ar  
    59    24    64 1   
    60    25    65 1   
    61    26    27 1   
    62    26    66 1   
    63    27    67 1   
    64    28    68 1   
    65    29    30 1   
    66    29    69 1   
    67    30    70 1   
    68    31    32 1   
    69    31    71 1   
    70    31    72 1   
    71    32    33 1   
    72    32    73 1   
    73    32    74 1   
    74    33    34 1   
    75    33    75 1   
    76    33    76 1   
    77    34    35 1   
    78    34    77 1   
    79    34    78 1   
    80    35    79 1   
    81    35    80 1   
@<TRIPOS>SUBSTRUCTURE
     1 HWE         1 TEMP              0 ****  ****    0 ROOT
