@<TRIPOS>MOLECULE
HWE
   80    81     1     0     0
SMALL
No Charge or Current Charge


@<TRIPOS>ATOM
      1 C1          -1.1570     2.5660    -1.4850 c3         1 HWE      -0.196400
      2 N1           3.9190     2.4980     1.1460 ns         1 HWE      -0.496900
      3 O1           4.0230     2.6350    -1.1210 o          1 HWE      -0.605100
      4 C2           0.1720     2.8130    -2.2070 c          1 HWE       0.602100
      5 O2           0.1810     2.9710    -3.4180 o          1 HWE      -0.630100
      6 O3          -1.4080    -1.2710     0.4750 o          1 HWE      -0.629100
      7 C4           1.2670     0.9830     0.1550 c3         1 HWE      -0.081700
      8 C5           1.6840    -0.0600    -0.9140 c3         1 HWE      -0.095600
      9 C6           1.5690     0.5070     1.5980 c3         1 HWE      -0.095600
     10 C7           3.3390     2.5280    -0.1090 c          1 HWE       0.595100
     11 C13          3.6180    -2.8550     0.7780 c3         1 HWE      -0.080400
     12 C14          2.6500    -3.5390    -0.2180 c3         1 HWE      -0.073400
     13 C15          1.2220    -3.7020     0.3650 c3         1 HWE      -0.077400
     14 C16          0.1240    -3.9650    -0.6960 c3         1 HWE      -0.068400
     15 C17         -1.2950    -4.1400    -0.0830 c3         1 HWE      -0.059400
     16 C18         -2.3880    -3.1850    -0.6430 c3         1 HWE      -0.158400
     17 C19         -2.9640     0.6360    -1.0940 c3         1 HWE       0.126700
     18 C20         -2.2010    -1.6860    -0.3550 c          1 HWE       0.599100
     19 C21         -3.1900     1.2160     0.3330 c3         1 HWE      -0.037100
     20 C22         -4.3940     0.6050     1.0470 ca         1 HWE      -0.079300
     21 C23         -4.2130    -0.2220     2.1740 ca         1 HWE      -0.106500
     22 C24         -5.3230    -0.7880     2.8240 ca         1 HWE      -0.112000
     23 C25         -6.6220    -0.5290     2.3540 ca         1 HWE      -0.111000
     24 C26         -6.8090     0.2980     1.2340 ca         1 HWE      -0.112000
     25 C27         -5.6990     0.8630     0.5830 ca         1 HWE      -0.106500
     26 C           -1.6820     1.1450    -1.8400 c3         1 HWE       0.165300
     27 O           -1.9230     1.1130    -3.2550 oh         1 HWE      -0.679000
     28 N2          -2.9970    -0.8460    -1.1120 ns         1 HWE      -0.497900
     29 N            1.3630     2.9360    -1.5190 ns         1 HWE      -0.493900
     30 C3           1.7710     2.4320    -0.1710 c3         1 HWE       0.043700
     31 C8           5.3660     2.3930     1.3990 c3         1 HWE       0.101000
     32 C9           5.8130     0.9500     1.7540 c3         1 HWE      -0.095400
     33 C10          5.4810    -0.1050     0.6700 c3         1 HWE      -0.083400
     34 C11          5.8500    -1.5640     1.0440 c3         1 HWE      -0.072400
     35 C12          5.0510    -2.6200     0.2320 c3         1 HWE      -0.073400
     36 H1          -1.0250     2.6890    -0.4070 hc         1 HWE       0.073200
     37 H2          -1.8900     3.3040    -1.8340 hc         1 HWE       0.073200
     38 H3           3.2900     2.4390     1.9370 hn         1 HWE       0.313500
     39 H4           0.1790     1.0060     0.1530 hc         1 HWE       0.067700
     40 H5           2.7650    -0.2190    -0.9320 hc         1 HWE       0.043200
     41 H6           1.1980    -1.0180    -0.7130 hc         1 HWE       0.043200
     42 H7           1.3830     0.2500    -1.9200 hc         1 HWE       0.043200
     43 H8           2.6310     0.3050     1.7610 hc         1 HWE       0.043200
     44 H9           1.2440     1.2570     2.3280 hc         1 HWE       0.043200
     45 H10          1.0250    -0.4200     1.8130 hc         1 HWE       0.043200
     46 H11          3.1810    -1.8960     1.0700 hc         1 HWE       0.037200
     47 H12          3.6800    -3.4550     1.6940 hc         1 HWE       0.037200
     48 H13          2.6040    -2.9370    -1.1340 hc         1 HWE       0.038200
     49 H14          3.0430    -4.5220    -0.5050 hc         1 HWE       0.038200
     50 H15          1.2290    -4.5210     1.0950 hc         1 HWE       0.041200
     51 H16          0.9530    -2.7950     0.9180 hc         1 HWE       0.041200
     52 H17          0.1170    -3.1400    -1.4180 hc         1 HWE       0.037700
     53 H18          0.3820    -4.8680    -1.2640 hc         1 HWE       0.037700
     54 H19         -1.6190    -5.1740    -0.2520 hc         1 HWE       0.046700
     55 H20         -1.2510    -4.0180     1.0070 hc         1 HWE       0.046700
     56 H21         -2.5330    -3.3210    -1.7220 hc         1 HWE       0.059200
     57 H22         -3.3770    -3.4600    -0.2590 hc         1 HWE       0.059200
     58 H23         -3.8260     0.9700    -1.6860 h1         1 HWE       0.068700
     59 H24         -2.2850     1.0890     0.9370 hc         1 HWE       0.061200
     60 H25         -3.3430     2.2990     0.2530 hc         1 HWE       0.061200
     61 H26         -3.2120    -0.4310     2.5430 ha         1 HWE       0.116000
     62 H27         -5.1760    -1.4280     3.6910 ha         1 HWE       0.112000
     63 H28         -7.4810    -0.9670     2.8580 ha         1 HWE       0.112000
     64 H29         -7.8140     0.5000     0.8700 ha         1 HWE       0.112000
     65 H30         -5.8550     1.5030    -0.2830 ha         1 HWE       0.116000
     66 H31         -0.8820     0.4350    -1.6100 h1         1 HWE       0.049700
     67 H32         -1.2410     1.7030    -3.6620 ho         1 HWE       0.479000
     68 H33         -3.6180    -1.2940    -1.7730 hn         1 HWE       0.321500
     69 H34          2.1380     3.1920    -2.1230 hn         1 HWE       0.345500
     70 H35          1.3740     3.1230     0.5840 h1         1 HWE       0.058700
     71 H36          5.9240     2.7390     0.5190 h1         1 HWE       0.059700
     72 H37          5.6210     3.0610     2.2320 h1         1 HWE       0.059700
     73 H38          6.8940     0.9490     1.9380 hc         1 HWE       0.042200
     74 H39          5.3320     0.6580     2.6960 hc         1 HWE       0.042200
     75 H40          4.4130    -0.0590     0.4680 hc         1 HWE       0.048700
     76 H41          5.9810     0.1640    -0.2680 hc         1 HWE       0.048700
     77 H42          6.9240    -1.7090     0.8730 hc         1 HWE       0.036700
     78 H43          5.6780    -1.7330     2.1140 hc         1 HWE       0.036700
     79 H44          5.5920    -3.5740     0.2490 hc         1 HWE       0.040700
     80 H45          5.0060    -2.3050    -0.8180 hc         1 HWE       0.040700
@<TRIPOS>BOND
     1     1     4 1   
     2     1    26 1   
     3     1    36 1   
     4     1    37 1   
     5     2    10 1   
     6     2    31 1   
     7     2    38 1   
     8     3    10 2   
     9     4     5 2   
    10     4    29 1   
    11     6    18 2   
    12     7     8 1   
    13     7     9 1   
    14     7    30 1   
    15     7    39 1   
    16     8    40 1   
    17     8    41 1   
    18     8    42 1   
    19     9    43 1   
    20     9    44 1   
    21     9    45 1   
    22    10    30 1   
    23    11    12 1   
    24    11    35 1   
    25    11    46 1   
    26    11    47 1   
    27    12    13 1   
    28    12    48 1   
    29    12    49 1   
    30    13    14 1   
    31    13    50 1   
    32    13    51 1   
    33    14    15 1   
    34    14    52 1   
    35    14    53 1   
    36    15    16 1   
    37    15    54 1   
    38    15    55 1   
    39    16    18 1   
    40    16    56 1   
    41    16    57 1   
    42    17    19 1   
    43    17    26 1   
    44    17    28 1   
    45    17    58 1   
    46    18    28 1   
    47    19    20 1   
    48    19    59 1   
    49    19    60 1   
    50    20    21 ar  
    51    20    25 ar  
    52    21    22 ar  
    53    21    61 1   
    54    22    23 ar  
    55    22    62 1   
    56    23    24 ar  
    57    23    63 1   
    58    24    25 ar  
    59    24    64 1   
    60    25    65 1   
    61    26    27 1   
    62    26    66 1   
    63    27    67 1   
    64    28    68 1   
    65    29    30 1   
    66    29    69 1   
    67    30    70 1   
    68    31    32 1   
    69    31    71 1   
    70    31    72 1   
    71    32    33 1   
    72    32    73 1   
    73    32    74 1   
    74    33    34 1   
    75    33    75 1   
    76    33    76 1   
    77    34    35 1   
    78    34    77 1   
    79    34    78 1   
    80    35    79 1   
    81    35    80 1   
@<TRIPOS>SUBSTRUCTURE
     1 HWE         1 TEMP              0 ****  ****    0 ROOT
