@<TRIPOS>MOLECULE
HWF
   32    33     1     0     0
SMALL
No Charge or Current Charge


@<TRIPOS>ATOM
      1 O1          36.9670   -16.8940     7.8730 o          1 HWF      -0.732000
      2 C7          37.7980   -14.5530     5.2400 ca         1 HWF      -0.037300
      3 C6          36.4050   -14.7460     5.8300 c3         1 HWF      -0.011100
      4 C1          36.3810   -14.6290     7.3790 c3         1 HWF      -0.184700
      5 C5          34.0100   -13.4720     7.5240 c5         1 HWF       0.128800
      6 C4          33.3590   -14.2110     9.6670 c5         1 HWF       0.130800
      7 C3          34.8570   -14.5370     9.5130 c5         1 HWF      -0.102400
      8 C2          34.9370   -14.6520     7.9680 c5         1 HWF      -0.061700
      9 C           37.2730   -15.7190     8.0250 c          1 HWF       0.720000
     10 O           38.2400   -15.3590     8.6810 o          1 HWF      -0.732000
     11 N           33.1800   -13.1050     8.7050 n7         1 HWF      -0.851400
     12 C12         38.3520   -13.2620     5.1410 ca         1 HWF      -0.095500
     13 C11         39.6340   -13.0790     4.5930 ca         1 HWF      -0.121000
     14 C10         40.3700   -14.1870     4.1410 ca         1 HWF      -0.132000
     15 C9          39.8230   -15.4780     4.2370 ca         1 HWF      -0.121000
     16 C8          38.5410   -15.6600     4.7840 ca         1 HWF      -0.095500
     17 H1          35.7330   -13.9940     5.3990 hc         1 HWF       0.030700
     18 H2          35.9930   -15.7180     5.5310 hc         1 HWF       0.030700
     19 H3          36.8220   -13.6580     7.6330 hc         1 HWF       0.033700
     20 H4          34.5930   -12.5990     7.1950 h1         1 HWF       0.033200
     21 H5          33.3770   -13.7790     6.6800 h1         1 HWF       0.033200
     22 H6          33.0970   -13.9090    10.6910 h1         1 HWF       0.035200
     23 H7          32.7340   -15.0740     9.3930 h1         1 HWF       0.035200
     24 H8          35.1360   -15.4650    10.0240 hc         1 HWF       0.060700
     25 H9          35.4920   -13.7330     9.9050 hc         1 HWF       0.060700
     26 H10         34.4850   -15.6010     7.6530 hc         1 HWF       0.059700
     27 H12         33.5950   -12.2650     9.1250 hn         1 HWF       0.384000
     28 H14         37.7880   -12.3990     5.4880 ha         1 HWF       0.113500
     29 H15         40.0560   -12.0800     4.5200 ha         1 HWF       0.092500
     30 H16         41.3620   -14.0460     3.7180 ha         1 HWF       0.089000
     31 H17         40.3910   -16.3360     3.8870 ha         1 HWF       0.092500
     32 H18         38.1250   -16.6630     4.8560 ha         1 HWF       0.113500
@<TRIPOS>BOND
     1     1     9 1   
     2     2     3 1   
     3     2    12 ar  
     4     2    16 ar  
     5     3     4 1   
     6     3    17 1   
     7     3    18 1   
     8     4     8 1   
     9     4     9 1   
    10     4    19 1   
    11     5     8 1   
    12     5    11 1   
    13     5    20 1   
    14     5    21 1   
    15     6     7 1   
    16     6    11 1   
    17     6    22 1   
    18     6    23 1   
    19     7     8 1   
    20     7    24 1   
    21     7    25 1   
    22     8    26 1   
    23     9    10 1   
    24    11    27 1   
    25    12    13 ar  
    26    12    28 1   
    27    13    14 ar  
    28    13    29 1   
    29    14    15 ar  
    30    14    30 1   
    31    15    16 ar  
    32    15    31 1   
    33    16    32 1   
@<TRIPOS>SUBSTRUCTURE
     1 HWF         1 TEMP              0 ****  ****    0 ROOT
