@<TRIPOS>MOLECULE
HWF
   32    33     1     0     0
SMALL
abcg2


@<TRIPOS>ATOM
      1 O1          37.0380   -16.8520     7.7040 o          1 HWF      -0.732000
      2 C7          37.7550   -14.5390     5.2540 ca         1 HWF      -0.037300
      3 C6          36.3830   -14.7110     5.8460 c3         1 HWF      -0.011100
      4 C1          36.3820   -14.5920     7.3750 c3         1 HWF      -0.184700
      5 C5          34.0120   -13.5640     7.4760 c5         1 HWF       0.128800
      6 C4          33.4590   -14.1230     9.6810 c5         1 HWF       0.130800
      7 C3          34.8760   -14.6390     9.4600 c5         1 HWF      -0.102400
      8 C2          34.9630   -14.7020     7.9330 c5         1 HWF      -0.061700
      9 C           37.2860   -15.6680     8.0160 c          1 HWF       0.720000
     10 O           38.1690   -15.2770     8.8060 o          1 HWF      -0.732000
     11 N           33.2470   -13.1130     8.6470 n7         1 HWF      -0.851400
     12 C12         38.3320   -13.2710     5.1760 ca         1 HWF      -0.095500
     13 C11         39.6080   -13.0940     4.6600 ca         1 HWF      -0.121000
     14 C10         40.3340   -14.1890     4.2080 ca         1 HWF      -0.132000
     15 C9          39.7720   -15.4560     4.2770 ca         1 HWF      -0.121000
     16 C8          38.4950   -15.6270     4.7990 ca         1 HWF      -0.095500
     17 H1          35.7190   -13.9520     5.4220 hc         1 HWF       0.030700
     18 H2          35.9720   -15.6820     5.5610 hc         1 HWF       0.030700
     19 H3          36.7680   -13.6000     7.6420 hc         1 HWF       0.033700
     20 H4          34.5690   -12.7230     7.0550 h1         1 HWF       0.033200
     21 H5          33.3400   -13.9200     6.6920 h1         1 HWF       0.033200
     22 H6          33.2920   -13.6990    10.6720 h1         1 HWF       0.035200
     23 H7          32.7390   -14.9380     9.5530 h1         1 HWF       0.035200
     24 H8          35.0700   -15.6030     9.9320 hc         1 HWF       0.060700
     25 H9          35.6010   -13.9210     9.8580 hc         1 HWF       0.060700
     26 H10         34.5440   -15.6610     7.6090 hc         1 HWF       0.059700
     27 H12         33.6540   -12.2470     8.9760 hn         1 HWF       0.384000
     28 H14         37.7710   -12.4090     5.5230 ha         1 HWF       0.113500
     29 H15         40.0350   -12.1010     4.6070 ha         1 HWF       0.092500
     30 H16         41.3290   -14.0550     3.8020 ha         1 HWF       0.089000
     31 H17         40.3280   -16.3160     3.9250 ha         1 HWF       0.092500
     32 H18         38.0660   -16.6200     4.8520 ha         1 HWF       0.113500
@<TRIPOS>BOND
     1     1     9 1   
     2     2     3 1   
     3     2    12 ar  
     4     2    16 ar  
     5     3     4 1   
     6     3    17 1   
     7     3    18 1   
     8     4     8 1   
     9     4     9 1   
    10     4    19 1   
    11     5     8 1   
    12     5    11 1   
    13     5    20 1   
    14     5    21 1   
    15     6     7 1   
    16     6    11 1   
    17     6    22 1   
    18     6    23 1   
    19     7     8 1   
    20     7    24 1   
    21     7    25 1   
    22     8    26 1   
    23     9    10 1   
    24    11    27 1   
    25    12    13 ar  
    26    12    28 1   
    27    13    14 ar  
    28    13    29 1   
    29    14    15 ar  
    30    14    30 1   
    31    15    16 ar  
    32    15    31 1   
    33    16    32 1   
@<TRIPOS>SUBSTRUCTURE
     1 HWF         1 TEMP              0 ****  ****    0 ROOT
