@<TRIPOS>MOLECULE
HWG
   57    59     1     0     0
SMALL
abcg2


@<TRIPOS>ATOM
      1 C1           2.3760    -2.4780    -1.5710 ca         1 HWG      -0.080300
      2 C2           1.1980    -1.9690    -2.0990 ca         1 HWG      -0.080500
      3 C3           1.1210    -0.6360    -2.4980 ca         1 HWG      -0.134600
      4 C4           2.2230     0.1940    -2.3730 ca         1 HWG      -0.080500
      5 C5           3.4080    -0.2870    -1.8170 ca         1 HWG      -0.080300
      6 C6           3.4670    -1.6190    -1.4290 ca         1 HWG      -0.100000
      7 C7           0.5440    -0.5940     1.3430 ca         1 HWG      -0.084000
      8 C8           0.9300    -0.8660     2.6420 ca         1 HWG      -0.121000
      9 C9           0.4780    -0.0590     3.6760 ca         1 HWG       0.083100
     10 C10         -0.3690     1.0210     3.3980 ca         1 HWG       0.039100
     11 C11         -0.7570     1.3150     2.0890 ca         1 HWG      -0.011300
     12 C12         -0.2790     0.4950     1.0630 ca         1 HWG      -0.160600
     13 O13          0.8780    -0.3480     4.9320 os         1 HWG      -0.329100
     14 C14          0.6390     0.6730     5.8910 c6         1 HWG       0.117600
     15 C15         -0.7370     1.2550     5.6900 c6         1 HWG       0.116600
     16 O16         -0.8390     1.8130     4.3900 os         1 HWG      -0.327100
     17 C26          2.4800    -3.9140    -1.1470 c3         1 HWG      -0.047300
     18 C30          4.5910     0.6230    -1.6570 c3         1 HWG      -0.047300
     19 C38         -0.1220    -0.1190    -3.1510 c          1 HWG       0.628700
     20 C39         -0.5750     0.8020    -0.3640 c          1 HWG       0.616700
     21 N40         -1.2640    -0.2040    -2.4050 n          1 HWG      -0.274400
     22 N41         -1.0890    -0.2520    -1.0500 ns         1 HWG      -0.375500
     23 O42         -0.0940     0.3040    -4.2910 o          1 HWG      -0.566100
     24 O43         -0.3460     1.8770    -0.8830 o          1 HWG      -0.570100
     25 C45         -2.6260     0.0920    -2.9360 c3         1 HWG       0.145400
     26 C46         -3.6520    -0.3090    -1.8760 c3         1 HWG      -0.100767
     27 C50         -2.7920     1.5770    -3.2550 c3         1 HWG      -0.100767
     28 C54         -2.8780    -0.7630    -4.1800 c3         1 HWG      -0.100767
     29 H2           0.3350    -2.6180    -2.2050 ha         1 HWG       0.124500
     30 H4           2.1580     1.2300    -2.6870 ha         1 HWG       0.124500
     31 H6           4.3880    -2.0040    -1.0040 ha         1 HWG       0.111000
     32 H7           0.9240    -1.2110     0.5380 ha         1 HWG       0.130000
     33 H8           1.5870    -1.6970     2.8630 ha         1 HWG       0.132000
     34 H141         1.4010     1.4540     5.8030 h1         1 HWG       0.069700
     35 H142         0.7240     0.2160     6.8760 h1         1 HWG       0.069700
     36 H151        -0.9200     2.0590     6.4010 h1         1 HWG       0.068700
     37 H152        -1.5050     0.4860     5.8320 h1         1 HWG       0.068700
     38 H261         2.6900    -3.9960    -0.0790 hc         1 HWG       0.043700
     39 H262         1.5590    -4.4590    -1.3480 hc         1 HWG       0.043700
     40 H263         3.2910    -4.4220    -1.6710 hc         1 HWG       0.043700
     41 H301         4.9790     0.9380    -2.6280 hc         1 HWG       0.043700
     42 H302         4.3200     1.5280    -1.1120 hc         1 HWG       0.043700
     43 H303         5.4020     0.1370    -1.1180 hc         1 HWG       0.043700
     44 H341        -1.1310     3.4210     1.8520 hc         1 HWG       0.053367
     45 H342        -2.1940     2.4050     0.8960 hc         1 HWG       0.053367
     46 H343        -2.4370     2.5420     2.6280 hc         1 HWG       0.053367
     47 H41         -1.2810    -1.1230    -0.5790 hn         1 HWG       0.340500
     48 H461        -3.5540    -1.3550    -1.5810 hc         1 HWG       0.045811
     49 H462        -3.5980     0.3100    -0.9810 hc         1 HWG       0.045811
     50 H463        -4.6490    -0.1800    -2.2980 hc         1 HWG       0.045811
     51 H501        -2.0930     1.9090    -4.0190 hc         1 HWG       0.045811
     52 H502        -3.8030     1.7560    -3.6260 hc         1 HWG       0.045811
     53 H503        -2.6520     2.1910    -2.3660 hc         1 HWG       0.045811
     54 H541        -3.9260    -0.6720    -4.4690 hc         1 HWG       0.045811
     55 H542        -2.2770    -0.4560    -5.0310 hc         1 HWG       0.045811
     56 H543        -2.6790    -1.8170    -3.9770 hc         1 HWG       0.045811
     57 C34         -1.6780     2.4760     1.8500 c3         1 HWG      -0.045800
@<TRIPOS>BOND
     1     1     2 ar  
     2     1     6 ar  
     3     1    17 1   
     4     2     3 ar  
     5     2    29 1   
     6     3     4 ar  
     7     3    19 1   
     8     4     5 ar  
     9     4    30 1   
    10     5     6 ar  
    11     5    18 1   
    12     6    31 1   
    13     7     8 ar  
    14     7    12 ar  
    15     7    32 1   
    16     8     9 ar  
    17     8    33 1   
    18     9    10 ar  
    19     9    13 1   
    20    10    11 ar  
    21    10    16 1   
    22    11    12 ar  
    23    11    57 1   
    24    12    20 1   
    25    13    14 1   
    26    14    15 1   
    27    14    34 1   
    28    14    35 1   
    29    15    16 1   
    30    15    36 1   
    31    15    37 1   
    32    17    38 1   
    33    17    39 1   
    34    17    40 1   
    35    18    41 1   
    36    18    42 1   
    37    18    43 1   
    38    19    21 1   
    39    19    23 2   
    40    20    22 1   
    41    20    24 2   
    42    21    22 1   
    43    21    25 1   
    44    22    47 1   
    45    25    26 1   
    46    25    27 1   
    47    25    28 1   
    48    26    48 1   
    49    26    49 1   
    50    26    50 1   
    51    27    51 1   
    52    27    52 1   
    53    27    53 1   
    54    28    54 1   
    55    28    55 1   
    56    28    56 1   
    57    44    57 1   
    58    45    57 1   
    59    46    57 1   
@<TRIPOS>SUBSTRUCTURE
     1 HWG         1 TEMP              0 ****  ****    0 ROOT
