@<TRIPOS>MOLECULE
HWG
   57    59     1     0     0
SMALL
No Charge or Current Charge


@<TRIPOS>ATOM
      1 C1           2.5140    -2.0460    -1.2260 ca         1 HWG      -0.080300
      2 C2           1.3020    -1.6870    -1.8450 ca         1 HWG      -0.080500
      3 C3           1.1940    -0.4820    -2.5750 ca         1 HWG      -0.134600
      4 C4           2.3390     0.3290    -2.7220 ca         1 HWG      -0.080500
      5 C5           3.5560    -0.0240    -2.1120 ca         1 HWG      -0.080300
      6 C6           3.6350    -1.2070    -1.3550 ca         1 HWG      -0.100000
      7 C7          -0.1590    -1.0710     1.4960 ca         1 HWG      -0.084000
      8 C8           0.1410    -1.4250     2.8180 ca         1 HWG      -0.121000
      9 C9           0.0680    -0.4680     3.8330 ca         1 HWG       0.083100
     10 C10         -0.3400     0.8550     3.5330 ca         1 HWG       0.039100
     11 C11         -0.6430     1.2270     2.1970 ca         1 HWG      -0.011300
     12 C12         -0.5420     0.2520     1.1580 ca         1 HWG      -0.160600
     13 O13          0.3980    -0.8390     5.1220 os         1 HWG      -0.329100
     14 C14          0.6250     0.2140     6.0830 c6         1 HWG       0.117600
     15 C15         -0.4480     1.3080     5.9130 c6         1 HWG       0.116600
     16 O16         -0.4390     1.7890     4.5520 os         1 HWG      -0.327100
     17 C26          2.6120    -3.3310    -0.4190 c3         1 HWG      -0.047300
     18 C30          4.7740     0.8740    -2.2570 c3         1 HWG      -0.047300
     19 C38         -0.1030    -0.0640    -3.2420 c          1 HWG       0.628700
     20 C39         -0.8080     0.5930    -0.3000 c          1 HWG       0.616700
     21 N40         -1.3370    -0.2710    -2.5340 n          1 HWG      -0.274400
     22 N41         -1.2660    -0.4620    -1.0840 ns         1 HWG      -0.375500
     23 O42         -0.0680     0.4040    -4.3750 o          1 HWG      -0.566100
     24 O43         -0.5830     1.6980    -0.7770 o          1 HWG      -0.570100
     25 C45         -2.6850    -0.0000    -3.1490 c3         1 HWG       0.145400
     26 C46         -3.8290    -0.3880    -2.1620 c3         1 HWG      -0.100767
     27 C50         -2.8670     1.5090    -3.4640 c3         1 HWG      -0.100767
     28 C54         -2.8980    -0.8720    -4.4180 c3         1 HWG      -0.100767
     29 H2           0.4480    -2.3550    -1.7680 ha         1 HWG       0.124500
     30 H4           2.2750     1.2510    -3.2980 ha         1 HWG       0.124500
     31 H6           4.5710    -1.4800    -0.8740 ha         1 HWG       0.111000
     32 H7          -0.0530    -1.8380     0.7330 ha         1 HWG       0.130000
     33 H8           0.4500    -2.4400     3.0540 ha         1 HWG       0.132000
     34 H141         1.6210     0.6470     5.9130 h1         1 HWG       0.069700
     35 H142         0.5970    -0.2050     7.0980 h1         1 HWG       0.069700
     36 H151        -0.2600     2.1460     6.5980 h1         1 HWG       0.068700
     37 H152        -1.4390     0.8900     6.1390 h1         1 HWG       0.068700
     38 H261         2.4420    -3.1360     0.6470 hc         1 HWG       0.043700
     39 H262         1.8710    -4.0710    -0.7460 hc         1 HWG       0.043700
     40 H263         3.6020    -3.7910    -0.5210 hc         1 HWG       0.043700
     41 H301         4.7740     1.3950    -3.2230 hc         1 HWG       0.043700
     42 H302         4.7960     1.6340    -1.4670 hc         1 HWG       0.043700
     43 H303         5.7060     0.2990    -2.1950 hc         1 HWG       0.043700
     44 H341        -0.3150     3.2490     1.4490 hc         1 HWG       0.053367
     45 H342        -1.9770     2.6630     1.2320 hc         1 HWG       0.053367
     46 H343        -1.4370     3.1920     2.8090 hc         1 HWG       0.053367
     47 H41         -1.4050    -1.3850    -0.6860 hn         1 HWG       0.340500
     48 H461        -3.7530    -1.4410    -1.8650 hc         1 HWG       0.045811
     49 H462        -3.8050     0.2290    -1.2560 hc         1 HWG       0.045811
     50 H463        -4.8130    -0.2450    -2.6250 hc         1 HWG       0.045811
     51 H501        -2.1600     1.8540    -4.2250 hc         1 HWG       0.045811
     52 H502        -3.8770     1.7090    -3.8430 hc         1 HWG       0.045811
     53 H503        -2.7190     2.1160    -2.5630 hc         1 HWG       0.045811
     54 H541        -3.9210    -0.7640    -4.8000 hc         1 HWG       0.045811
     55 H542        -2.2220    -0.5870    -5.2300 hc         1 HWG       0.045811
     56 H543        -2.7310    -1.9320    -4.1920 hc         1 HWG       0.045811
     57 C34         -1.1150     2.6570     1.9090 c3         1 HWG      -0.045800
@<TRIPOS>BOND
     1     1     2 ar  
     2     1     6 ar  
     3     1    17 1   
     4     2     3 ar  
     5     2    29 1   
     6     3     4 ar  
     7     3    19 1   
     8     4     5 ar  
     9     4    30 1   
    10     5     6 ar  
    11     5    18 1   
    12     6    31 1   
    13     7     8 ar  
    14     7    12 ar  
    15     7    32 1   
    16     8     9 ar  
    17     8    33 1   
    18     9    10 ar  
    19     9    13 1   
    20    10    11 ar  
    21    10    16 1   
    22    11    12 ar  
    23    11    57 1   
    24    12    20 1   
    25    13    14 1   
    26    14    15 1   
    27    14    34 1   
    28    14    35 1   
    29    15    16 1   
    30    15    36 1   
    31    15    37 1   
    32    17    38 1   
    33    17    39 1   
    34    17    40 1   
    35    18    41 1   
    36    18    42 1   
    37    18    43 1   
    38    19    21 1   
    39    19    23 2   
    40    20    22 1   
    41    20    24 2   
    42    21    22 1   
    43    21    25 1   
    44    22    47 1   
    45    25    26 1   
    46    25    27 1   
    47    25    28 1   
    48    26    48 1   
    49    26    49 1   
    50    26    50 1   
    51    27    51 1   
    52    27    52 1   
    53    27    53 1   
    54    28    54 1   
    55    28    55 1   
    56    28    56 1   
    57    44    57 1   
    58    45    57 1   
    59    46    57 1   
@<TRIPOS>SUBSTRUCTURE
     1 HWG         1 TEMP              0 ****  ****    0 ROOT
