@<TRIPOS>MOLECULE
HWH
   29    30     1     0     0
SMALL
bcc


@<TRIPOS>ATOM
      1 N1          -3.2660     0.0220     0.3930 ns         1 HWH      -0.579900
      2 C4          -1.1200    -0.9710     1.0030 c3         1 HWH      -0.015200
      3 C5           0.2550    -1.3110     0.5360 cc         1 HWH      -0.148400
      4 C6           0.7500    -2.5570     0.2640 cd         1 HWH      -0.095100
      5 C7           2.4180    -1.1600    -0.1960 ca         1 HWH      -0.064200
      6 C8           1.3160    -0.3950     0.2460 ca         1 HWH      -0.070800
      7 C10          2.6330     1.5540    -0.0360 ca         1 HWH       0.105900
      8 C1          -5.4780     0.9880     0.3620 c3         1 HWH      -0.179100
      9 C11          3.7260     0.8050    -0.4810 ca         1 HWH      -0.147000
     10 C12          3.6260    -0.5710    -0.5630 ca         1 HWH      -0.118000
     11 C2          -4.1390     0.7690    -0.2980 c          1 HWH       0.665100
     12 C3          -1.9470    -0.3130    -0.1000 c3         1 HWH       0.103000
     13 C9           1.4320     0.9990     0.3290 ca         1 HWH      -0.122000
     14 F1           2.7790     2.8940     0.0340 f          1 HWH      -0.149900
     15 N2           2.0390    -2.4710    -0.1720 na         1 HWH      -0.167400
     16 O1          -3.8740     1.2420    -1.3970 o          1 HWH      -0.607100
     17 H1          -3.5550    -0.3720     1.2730 hn         1 HWH       0.308500
     18 H2          -1.6250    -1.8790     1.3420 hc         1 HWH       0.045700
     19 H3          -1.0730    -0.2980     1.8640 hc         1 HWH       0.045700
     20 H4           0.2660    -3.5170     0.3580 h4         1 HWH       0.163000
     21 H5          -5.6860     2.0570     0.4160 hc         1 HWH       0.058033
     22 H6          -6.2600     0.5370    -0.2500 hc         1 HWH       0.058033
     23 H7          -5.5460     0.5730     1.3650 hc         1 HWH       0.058033
     24 H8           4.6430     1.3060    -0.7600 ha         1 HWH       0.148000
     25 H9           4.4650    -1.1630    -0.9050 ha         1 HWH       0.136000
     26 H10         -2.0140    -0.9900    -0.9560 h1         1 HWH       0.056700
     27 H11         -1.4490     0.5940    -0.4490 h1         1 HWH       0.056700
     28 H12          0.6130     1.6210     0.6680 ha         1 HWH       0.153000
     29 H13          2.6170    -3.2550    -0.4240 hn         1 HWH       0.302700
@<TRIPOS>BOND
     1     1    11 1   
     2     1    12 1   
     3     1    17 1   
     4     2     3 1   
     5     2    12 1   
     6     2    18 1   
     7     2    19 1   
     8     3     4 2   
     9     3     6 1   
    10     4    15 1   
    11     4    20 1   
    12     5     6 ar  
    13     5    10 ar  
    14     5    15 1   
    15     6    13 ar  
    16     7     9 ar  
    17     7    13 ar  
    18     7    14 1   
    19     8    11 1   
    20     8    21 1   
    21     8    22 1   
    22     8    23 1   
    23     9    10 ar  
    24     9    24 1   
    25    10    25 1   
    26    11    16 2   
    27    12    26 1   
    28    12    27 1   
    29    13    28 1   
    30    15    29 1   
@<TRIPOS>SUBSTRUCTURE
     1 HWH         1 TEMP              0 ****  ****    0 ROOT
