@<TRIPOS>MOLECULE
HWH
   29    30     1     0     0
SMALL
No Charge or Current Charge


@<TRIPOS>ATOM
      1 N1          -3.2790     0.0980     0.3760 ns         1 HWH      -0.512900
      2 C4          -1.1120    -0.9910     0.9560 c3         1 HWH      -0.015200
      3 C5           0.2680    -1.3520     0.4720 cc         1 HWH      -0.148400
      4 C6           0.7450    -2.6190     0.1500 cd         1 HWH      -0.145100
      5 C7           2.4190    -1.1840    -0.2150 ca         1 HWH      -0.064200
      6 C8           1.3570    -0.4490     0.2330 ca         1 HWH      -0.070800
      7 C10          2.6580     1.5710     0.0810 ca         1 HWH       0.141000
      8 C1          -5.5340     1.0400     0.3590 c3         1 HWH      -0.179100
      9 C11          3.7580     0.8160    -0.3860 ca         1 HWH      -0.129000
     10 C12          3.6450    -0.5830    -0.5380 ca         1 HWH      -0.100000
     11 C2          -4.2140     0.7880    -0.3590 c          1 HWH       0.598100
     12 C3          -1.9430    -0.2540    -0.1120 c3         1 HWH       0.103000
     13 C9           1.4380     0.9420     0.3980 ca         1 HWH      -0.104000
     14 F1           2.7780     2.9090     0.2250 f          1 HWH      -0.185000
     15 N2           2.0910    -2.5260    -0.2830 na         1 HWH      -0.217700
     16 O1          -4.0000     1.1680    -1.5010 o          1 HWH      -0.607100
     17 H1          -3.5450    -0.1770     1.3140 hn         1 HWH       0.308500
     18 H2          -1.6450    -1.8990     1.2630 hc         1 HWH       0.045700
     19 H3          -1.0310    -0.3580     1.8490 hc         1 HWH       0.045700
     20 H4           0.2260    -3.5740     0.1920 h4         1 HWH       0.213000
     21 H5          -6.2520     1.5910    -0.2590 hc         1 HWH       0.058033
     22 H6          -5.9440     0.0820     0.6990 hc         1 HWH       0.058033
     23 H7          -5.3330     1.5560     1.3040 hc         1 HWH       0.058033
     24 H8           4.6930     1.3170    -0.6260 ha         1 HWH       0.130000
     25 H9           4.4850    -1.1760    -0.8940 ha         1 HWH       0.118000
     26 H10         -2.0460    -0.8960    -0.9970 h1         1 HWH       0.056700
     27 H11         -1.4230     0.6640    -0.4140 h1         1 HWH       0.056700
     28 H12          0.5920     1.5200     0.7610 ha         1 HWH       0.135000
     29 H13          2.6920    -3.2880    -0.5820 hn         1 HWH       0.353000
@<TRIPOS>BOND
     1     1    11 1   
     2     1    12 1   
     3     1    17 1   
     4     2     3 1   
     5     2    12 1   
     6     2    18 1   
     7     2    19 1   
     8     3     4 2   
     9     3     6 1   
    10     4    15 1   
    11     4    20 1   
    12     5     6 ar  
    13     5    10 ar  
    14     5    15 1   
    15     6    13 ar  
    16     7     9 ar  
    17     7    13 ar  
    18     7    14 1   
    19     8    11 1   
    20     8    21 1   
    21     8    22 1   
    22     8    23 1   
    23     9    10 ar  
    24     9    24 1   
    25    10    25 1   
    26    11    16 2   
    27    12    26 1   
    28    12    27 1   
    29    13    28 1   
    30    15    29 1   
@<TRIPOS>SUBSTRUCTURE
     1 HWH         1 TEMP              0 ****  ****    0 ROOT
