@<TRIPOS>MOLECULE
HWI
   55    57     1     0     0
SMALL
No Charge or Current Charge


@<TRIPOS>ATOM
      1 C10          8.7170     3.7960    14.5520 ca         1 HWI      -0.121900
      2 C13          8.5930     0.3950    13.0350 c3         1 HWI      -0.072400
      3 C17          5.5420    -1.0650    15.8480 ca         1 HWI      -0.166000
      4 C20          3.1720    -1.0590    16.3670 ca         1 HWI      -0.098000
      5 C21          2.9110    -0.3770    15.1690 ca         1 HWI      -0.184000
      6 C22          3.9520    -0.0210    14.2870 ca         1 HWI       0.318000
      7 C24          4.4540     1.3430    12.0770 cy         1 HWI       0.213300
      8 C12          8.4560     1.9310    12.9900 c3         1 HWI       0.148600
      9 C14          7.7210    -0.2740    14.1180 c3         1 HWI       0.170600
     10 C16          5.2940    -0.3730    14.6360 ca         1 HWI       0.078100
     11 C18          4.4870    -1.4070    16.7100 ca         1 HWI      -0.126300
     12 C19          4.7730    -2.1440    18.0110 c3         1 HWI      -0.026800
     13 C01          5.6180     2.9480    15.7690 c3         1 HWI      -0.084100
     14 C02          7.0040     3.2090    16.3900 c3         1 HWI      -0.135700
     15 C03          7.8300     4.2020    15.5760 ca         1 HWI       0.196300
     16 C05          8.3720     6.3810    15.1450 ca         1 HWI       0.395900
     17 C08          9.4180     4.8230    13.8760 ca         1 HWI       0.388900
     18 C25          3.1020     1.5920    11.3290 cy         1 HWI      -0.222700
     19 C26          2.3310     1.2630    12.6520 cy         1 HWI       0.213300
     20 C27          3.0820     3.1750    11.4390 c          1 HWI       0.722000
     21 N04          7.6570     5.5090    15.8680 nb         1 HWI      -0.270000
     22 N06          8.2010     7.6890    15.4430 nv         1 HWI      -1.048900
     23 N07          9.2490     6.1170    14.1700 nb         1 HWI      -0.333000
     24 N09         10.3520     4.5830    12.9160 nv         1 HWI      -1.066900
     25 N23          3.6190     0.6600    13.1150 nn         1 HWI      -0.763400
     26 O11          8.8890     2.4540    14.2600 os         1 HWI      -0.361100
     27 O15          6.3430    -0.0250    13.7950 os         1 HWI      -0.339100
     28 O28          2.8170     3.8070    10.4280 o          1 HWI      -0.723000
     29 O29          3.3020     3.8520    12.4380 o          1 HWI      -0.723000
     30 H132         8.3260    -0.0180    12.0550 hc         1 HWI       0.049200
     31 H131         9.6430     0.1350    13.2120 hc         1 HWI       0.049200
     32 H171         6.5510    -1.3440    16.1360 ha         1 HWI       0.099000
     33 H201         2.3480    -1.3170    17.0290 ha         1 HWI       0.095000
     34 H211         1.8830    -0.1230    14.9280 ha         1 HWI       0.115000
     35 H242         5.0260     2.2080    12.4340 h1         1 HWI       0.036450
     36 H241         5.1240     0.6770    11.5210 h1         1 HWI       0.036450
     37 H122         7.4100     2.2020    12.7970 h1         1 HWI       0.051200
     38 H121         9.0650     2.3270    12.1680 h1         1 HWI       0.051200
     39 H142         7.9230    -1.3530    14.1350 h1         1 HWI       0.028700
     40 H141         7.9760     0.1430    15.1010 h1         1 HWI       0.028700
     41 H192         5.0670    -1.4410    18.8000 hc         1 HWI       0.026033
     42 H191         3.8920    -2.6940    18.3630 hc         1 HWI       0.026033
     43 H193         5.5860    -2.8690    17.8870 hc         1 HWI       0.026033
     44 H012         5.0660     2.2020    16.3540 hc         1 HWI       0.054367
     45 H011         5.0250     3.8690    15.7380 hc         1 HWI       0.054367
     46 H013         5.7200     2.5730    14.7440 hc         1 HWI       0.054367
     47 H021         6.8690     3.5790    17.4140 hc         1 HWI       0.052700
     48 H022         7.5370     2.2560    16.4830 hc         1 HWI       0.052700
     49 H251         2.8650     1.1060    10.3790 hc         1 HWI       0.048700
     50 H262         1.9570     2.0900    13.2660 h1         1 HWI       0.036450
     51 H261         1.5220     0.5400    12.4970 h1         1 HWI       0.036450
     52 H062         7.7220     7.9310    16.3070 hn         1 HWI       0.476000
     53 H061         8.8690     8.3630    15.0780 hn         1 HWI       0.476000
     54 H092        10.9740     5.3450    12.6590 hn         1 HWI       0.481500
     55 H091        10.7370     3.6440    12.8610 hn         1 HWI       0.481500
@<TRIPOS>BOND
     1     1    15 ar  
     2     1    17 ar  
     3     1    26 1   
     4     2     8 1   
     5     2     9 1   
     6     2    30 1   
     7     2    31 1   
     8     3    10 ar  
     9     3    11 ar  
    10     3    32 1   
    11     4     5 ar  
    12     4    11 ar  
    13     4    33 1   
    14     5     6 ar  
    15     5    34 1   
    16     6    10 ar  
    17     6    25 1   
    18     7    18 1   
    19     7    25 1   
    20     7    35 1   
    21     7    36 1   
    22     8    26 1   
    23     8    37 1   
    24     8    38 1   
    25     9    27 1   
    26     9    39 1   
    27     9    40 1   
    28    10    27 1   
    29    11    12 1   
    30    12    41 1   
    31    12    42 1   
    32    12    43 1   
    33    13    14 1   
    34    13    44 1   
    35    13    45 1   
    36    13    46 1   
    37    14    15 1   
    38    14    47 1   
    39    14    48 1   
    40    15    21 ar  
    41    16    21 ar  
    42    16    22 1   
    43    16    23 ar  
    44    17    23 ar  
    45    17    24 1   
    46    18    19 1   
    47    18    20 1   
    48    18    49 1   
    49    19    25 1   
    50    19    50 1   
    51    19    51 1   
    52    20    28 1   
    53    20    29 1   
    54    22    52 1   
    55    22    53 1   
    56    24    54 1   
    57    24    55 1   
@<TRIPOS>SUBSTRUCTURE
     1 HWI         1 TEMP              0 ****  ****    0 ROOT
