@<TRIPOS>MOLECULE
HWI
   55    57     1     0     0
SMALL
abcg2


@<TRIPOS>ATOM
      1 C10          8.7940     3.8170    14.7220 ca         1 HWI      -0.121900
      2 C13          8.4320     0.6330    12.9800 c3         1 HWI      -0.072400
      3 C17          5.6730    -1.0990    15.8030 ca         1 HWI      -0.166000
      4 C20          3.3850    -1.1740    16.4710 ca         1 HWI      -0.098000
      5 C21          3.0500    -0.3720    15.3830 ca         1 HWI      -0.184000
      6 C22          4.0110     0.0850    14.4850 ca         1 HWI       0.318000
      7 C24          4.2110     0.9270    12.0780 cy         1 HWI       0.213300
      8 C12          8.3820     2.1390    13.1270 c3         1 HWI       0.148600
      9 C14          7.6270    -0.1280    14.0150 c3         1 HWI       0.170600
     10 C16          5.3560    -0.2780    14.7340 ca         1 HWI       0.078100
     11 C18          4.6950    -1.5580    16.6950 ca         1 HWI      -0.126300
     12 C19          5.0830    -2.4260    17.8570 c3         1 HWI      -0.026800
     13 C01          5.3090     3.7520    15.0530 c3         1 HWI      -0.084100
     14 C02          6.5710     3.4890    15.8710 c3         1 HWI      -0.135700
     15 C03          7.7220     4.3370    15.4150 ca         1 HWI       0.196300
     16 C05          8.6510     6.4090    15.3100 ca         1 HWI       0.395900
     17 C08          9.8270     4.7130    14.3680 ca         1 HWI       0.388900
     18 C25          2.8380     1.3980    11.5560 cy         1 HWI      -0.222700
     19 C26          2.3060     1.1030    12.9750 cy         1 HWI       0.213300
     20 C27          2.7430     2.8720    11.1330 c          1 HWI       0.722000
     21 N04          7.6470     5.6400    15.7140 nb         1 HWI      -0.270000
     22 N06          8.5470     7.7430    15.5500 nv         1 HWI      -1.048900
     23 N07          9.7460     6.0040    14.6640 nb         1 HWI      -0.333000
     24 N09         10.9170     4.2820    13.7010 nv         1 HWI      -1.066900
     25 N23          3.6710     0.9080    13.4370 nn         1 HWI      -0.763400
     26 O11          8.9080     2.4930    14.4070 os         1 HWI      -0.361100
     27 O15          6.2670     0.2360    13.8780 os         1 HWI      -0.339100
     28 O28          2.1290     3.1100    10.0740 o          1 HWI      -0.723000
     29 O29          3.2730     3.7090    11.8920 o          1 HWI      -0.723000
     30 H132         8.0820     0.3790    11.9760 hc         1 HWI       0.049200
     31 H131         9.4680     0.2900    13.0420 hc         1 HWI       0.049200
     32 H171         6.7020    -1.3890    15.9770 ha         1 HWI       0.099000
     33 H201         2.6020    -1.5030    17.1430 ha         1 HWI       0.095000
     34 H211         2.0130    -0.0950    15.2380 ha         1 HWI       0.115000
     35 H242         5.0430     1.6150    11.9270 h1         1 HWI       0.036450
     36 H241         4.4960    -0.0600    11.7000 h1         1 HWI       0.036450
     37 H122         7.3550     2.5050    13.0250 h1         1 HWI       0.051200
     38 H121         8.9720     2.6070    12.3320 h1         1 HWI       0.051200
     39 H142         7.7500    -1.2060    13.8610 h1         1 HWI       0.028700
     40 H141         7.9910     0.1000    15.0220 h1         1 HWI       0.028700
     41 H192         5.7590    -1.9070    18.5380 hc         1 HWI       0.026033
     42 H191         4.2090    -2.7310    18.4310 hc         1 HWI       0.026033
     43 H193         5.5960    -3.3320    17.5290 hc         1 HWI       0.026033
     44 H012         4.4780     3.1590    15.4330 hc         1 HWI       0.054367
     45 H011         5.0230     4.8020    15.1000 hc         1 HWI       0.054367
     46 H013         5.4490     3.4870    14.0060 hc         1 HWI       0.054367
     47 H021         6.3760     3.7250    16.9200 hc         1 HWI       0.052700
     48 H022         6.8270     2.4310    15.8270 hc         1 HWI       0.052700
     49 H251         2.4140     0.7460    10.7930 hc         1 HWI       0.048700
     50 H262         1.7650     1.9080    13.4800 h1         1 HWI       0.036450
     51 H261         1.6910     0.1950    13.0210 h1         1 HWI       0.036450
     52 H062         7.8820     8.0310    16.2470 hn         1 HWI       0.476000
     53 H061         9.3920     8.2870    15.5090 hn         1 HWI       0.476000
     54 H092        11.7050     4.9050    13.6390 hn         1 HWI       0.481500
     55 H091        11.1300     3.2990    13.6910 hn         1 HWI       0.481500
@<TRIPOS>BOND
     1     1    15 ar  
     2     1    17 ar  
     3     1    26 1   
     4     2     8 1   
     5     2     9 1   
     6     2    30 1   
     7     2    31 1   
     8     3    10 ar  
     9     3    11 ar  
    10     3    32 1   
    11     4     5 ar  
    12     4    11 ar  
    13     4    33 1   
    14     5     6 ar  
    15     5    34 1   
    16     6    10 ar  
    17     6    25 1   
    18     7    18 1   
    19     7    25 1   
    20     7    35 1   
    21     7    36 1   
    22     8    26 1   
    23     8    37 1   
    24     8    38 1   
    25     9    27 1   
    26     9    39 1   
    27     9    40 1   
    28    10    27 1   
    29    11    12 1   
    30    12    41 1   
    31    12    42 1   
    32    12    43 1   
    33    13    14 1   
    34    13    44 1   
    35    13    45 1   
    36    13    46 1   
    37    14    15 1   
    38    14    47 1   
    39    14    48 1   
    40    15    21 ar  
    41    16    21 ar  
    42    16    22 1   
    43    16    23 ar  
    44    17    23 ar  
    45    17    24 1   
    46    18    19 1   
    47    18    20 1   
    48    18    49 1   
    49    19    25 1   
    50    19    50 1   
    51    19    51 1   
    52    20    28 1   
    53    20    29 1   
    54    22    52 1   
    55    22    53 1   
    56    24    54 1   
    57    24    55 1   
@<TRIPOS>SUBSTRUCTURE
     1 HWI         1 TEMP              0 ****  ****    0 ROOT
