@<TRIPOS>MOLECULE
HWJ
   33    35     1     0     0
SMALL
abcg2


@<TRIPOS>ATOM
      1 OAV          3.0780     2.6770    -0.9270 o          1 HWJ      -0.693000
      2 CAU          3.9010     1.7800    -0.6490 c          1 HWJ       0.726200
      3 OAW          5.1350     1.8440    -0.6520 o          1 HWJ      -0.693000
      4 CAR          3.2660     0.4520    -0.2630 cc         1 HWJ      -0.019200
      5 NAQ          1.9010     0.4730    -0.2540 na         1 HWJ      -0.570000
      6 CAS          3.8910    -0.7160     0.0570 cd         1 HWJ      -0.030100
      7 OAT          5.2190    -0.8670     0.0870 oh         1 HWJ      -0.491100
      8 CAO          3.1290    -1.9150     0.3890 c          1 HWJ       0.522500
      9 OAP          3.7560    -2.9570     0.6620 o          1 HWJ      -0.675100
     10 CAN          1.7140    -1.7740     0.3760 cc         1 HWJ      -0.400200
     11 CAM          1.1310    -0.5760     0.0520 cd         1 HWJ       0.161800
     12 CAL         -0.3340    -0.3850     0.0270 ca         1 HWJ      -0.028800
     13 CAH         -0.9610     0.5490     0.8650 ca         1 HWJ      -0.049300
     14 CAI         -0.1880     1.3930     1.8370 c3         1 HWJ      -0.060800
     15 CAG         -2.3430     0.6660     0.7970 ca         1 HWJ      -0.068000
     16 CAK         -1.0930    -1.1760    -0.8310 ca         1 HWJ      -0.085000
     17 CAJ         -2.4680    -1.0450    -0.8890 ca         1 HWJ      -0.109000
     18 CAF         -3.1010    -0.1130    -0.0730 ca         1 HWJ      -0.152500
     19 CAE         -4.5480     0.0550    -0.0920 cc         1 HWJ       0.474000
     20 NAD         -5.3990    -0.4620    -0.9830 na         1 HWJ      -0.214700
     21 NAA         -6.6290    -0.0940    -0.6730 nc         1 HWJ      -0.219800
     22 NAB         -6.5350     0.6260     0.3740 nd         1 HWJ      -0.049000
     23 NAC         -5.2690     0.7420     0.7660 nd         1 HWJ      -0.394000
     24 H2           5.3590    -1.7990     0.3350 ho         1 HWJ       0.464000
     25 H3           1.0910    -2.6180     0.6350 ha         1 HWJ       0.187000
     26 H5           0.3150     2.2260     1.3430 hc         1 HWJ       0.058367
     27 H6          -0.8510     1.8190     2.5880 hc         1 HWJ       0.058367
     28 H7           0.5760     0.8120     2.3550 hc         1 HWJ       0.058367
     29 H8          -2.8410     1.3780     1.4440 ha         1 HWJ       0.137000
     30 H9          -0.5990    -1.8990    -1.4670 ha         1 HWJ       0.132000
     31 H10         -3.0260    -1.6800    -1.5650 ha         1 HWJ       0.101000
     32 H11         -5.2300    -1.0310    -1.8010 hn         1 HWJ       0.385000
     33 H12          1.5080     1.3630    -0.5440 hn         1 HWJ       0.540000
@<TRIPOS>BOND
     1     1     2 1   
     2     2     3 1   
     3     2     4 1   
     4     4     5 1   
     5     4     6 2   
     6     5    11 1   
     7     5    33 1   
     8     6     7 1   
     9     6     8 1   
    10     7    24 1   
    11     8     9 2   
    12     8    10 1   
    13    10    11 2   
    14    10    25 1   
    15    11    12 1   
    16    12    13 ar  
    17    12    16 ar  
    18    13    14 1   
    19    13    15 ar  
    20    14    26 1   
    21    14    27 1   
    22    14    28 1   
    23    15    18 ar  
    24    15    29 1   
    25    16    17 ar  
    26    16    30 1   
    27    17    18 ar  
    28    17    31 1   
    29    18    19 1   
    30    19    20 1   
    31    19    23 2   
    32    20    21 1   
    33    20    32 1   
    34    21    22 2   
    35    22    23 1   
@<TRIPOS>SUBSTRUCTURE
     1 HWJ         1 TEMP              0 ****  ****    0 ROOT
