@<TRIPOS>MOLECULE
HWJ
   33    35     1     0     0
SMALL
No Charge or Current Charge


@<TRIPOS>ATOM
      1 OAV          3.6370     2.8300     0.2000 o          1 HWJ      -0.693000
      2 CAU          4.2640     1.7790     0.1260 c          1 HWJ       0.726200
      3 OAW          5.4870     1.7590     0.1110 o          1 HWJ      -0.693000
      4 CAR          3.4410     0.5090     0.0530 cc         1 HWJ      -0.019200
      5 NAQ          2.0170     0.5130     0.0620 na         1 HWJ      -0.570000
      6 CAS          3.9900    -0.7670    -0.0560 cd         1 HWJ      -0.030100
      7 OAT          5.3210    -1.0510    -0.1040 oh         1 HWJ      -0.491100
      8 CAO          3.1660    -1.9880    -0.1470 c          1 HWJ       0.522500
      9 OAP          3.6630    -3.1040    -0.2640 o          1 HWJ      -0.675100
     10 CAN          1.7390    -1.7940    -0.0820 cc         1 HWJ      -0.400200
     11 CAM          1.1280    -0.5740     0.0870 cd         1 HWJ       0.161800
     12 CAL         -0.3550    -0.3880     0.0860 ca         1 HWJ      -0.028800
     13 CAH         -1.0070     0.7420     0.6660 ca         1 HWJ      -0.049300
     14 CAI         -0.2740     1.8250     1.4610 c3         1 HWJ      -0.060800
     15 CAG         -2.4120     0.8590     0.5870 ca         1 HWJ      -0.068000
     16 CAK         -1.1660    -1.3720    -0.5280 ca         1 HWJ      -0.085000
     17 CAJ         -2.5610    -1.2430    -0.5940 ca         1 HWJ      -0.109000
     18 CAF         -3.2040    -0.1210    -0.0420 ca         1 HWJ      -0.152500
     19 CAE         -4.6670     0.0300    -0.1050 cc         1 HWJ       0.474000
     20 NAD         -5.5450    -0.8410    -0.6830 na         1 HWJ      -0.214700
     21 NAA         -6.8190    -0.3900    -0.5580 nc         1 HWJ      -0.219800
     22 NAB         -6.7000     0.7380     0.0880 nd         1 HWJ      -0.049000
     23 NAC         -5.3870     1.0230     0.3800 nd         1 HWJ      -0.394000
     24 H2           5.3730    -2.0330    -0.1910 ho         1 HWJ       0.464000
     25 H3           1.1760    -2.7160    -0.1220 ha         1 HWJ       0.187000
     26 H5           0.1710     2.5770     0.8010 hc         1 HWJ       0.058367
     27 H6          -0.9560     2.3590     2.1350 hc         1 HWJ       0.058367
     28 H7           0.5100     1.4000     2.1000 hc         1 HWJ       0.058367
     29 H8          -2.8950     1.7240     1.0370 ha         1 HWJ       0.137000
     30 H9          -0.7210    -2.2400    -1.0040 ha         1 HWJ       0.132000
     31 H10         -3.1320    -2.0240    -1.0900 ha         1 HWJ       0.101000
     32 H11         -5.3180    -1.7110    -1.1480 hn         1 HWJ       0.385000
     33 H12          1.5920     1.4380     0.0680 hn         1 HWJ       0.540000
@<TRIPOS>BOND
     1     1     2 1   
     2     2     3 1   
     3     2     4 1   
     4     4     5 1   
     5     4     6 2   
     6     5    11 1   
     7     5    33 1   
     8     6     7 1   
     9     6     8 1   
    10     7    24 1   
    11     8     9 2   
    12     8    10 1   
    13    10    11 2   
    14    10    25 1   
    15    11    12 1   
    16    12    13 ar  
    17    12    16 ar  
    18    13    14 1   
    19    13    15 ar  
    20    14    26 1   
    21    14    27 1   
    22    14    28 1   
    23    15    18 ar  
    24    15    29 1   
    25    16    17 ar  
    26    16    30 1   
    27    17    18 ar  
    28    17    31 1   
    29    18    19 1   
    30    19    20 1   
    31    19    23 2   
    32    20    21 1   
    33    20    32 1   
    34    21    22 2   
    35    22    23 1   
@<TRIPOS>SUBSTRUCTURE
     1 HWJ         1 TEMP              0 ****  ****    0 ROOT
