@<TRIPOS>MOLECULE
HWK
   33    35     1     0     0
SMALL
abcg2


@<TRIPOS>ATOM
      1 C10         -1.1230    -0.7320    -0.9870 c3         1 HWK      -0.013100
      2 C15          4.4080    -0.6470     1.2270 ca         1 HWK      -0.106000
      3 C17          5.1940     0.9350    -0.4390 ca         1 HWK      -0.122500
      4 C02         -2.2010     1.8490     0.3410 c          1 HWK       0.709600
      5 C04         -3.0150     0.5700     0.1570 ca         1 HWK      -0.116600
      6 C05         -4.3210     0.5710     0.6490 ca         1 HWK      -0.092000
      7 C06         -5.1670    -0.5160     0.4900 ca         1 HWK      -0.141000
      8 C07         -4.6960    -1.6550    -0.1470 ca         1 HWK      -0.144000
      9 C08         -3.3920    -1.6800    -0.6160 ca         1 HWK      -0.139000
     10 C09         -2.5380    -0.5830    -0.4890 ca         1 HWK      -0.062300
     11 C11         -0.1340    -0.9160     0.1660 c3         1 HWK      -0.094400
     12 C12          1.2400    -1.3000    -0.3220 c5         1 HWK       0.386300
     13 C14          3.2400    -0.7340     0.5100 ca         1 HWK       0.067100
     14 C16          5.3960     0.2110     0.7250 ca         1 HWK      -0.122500
     15 C18          3.9960     0.8370    -1.1590 ca         1 HWK      -0.106000
     16 C19          3.0390    -0.0090    -0.6550 ca         1 HWK       0.067100
     17 O01         -1.4130     2.1650    -0.5690 o          1 HWK      -0.717000
     18 O03         -2.4230     2.4910     1.3860 o          1 HWK      -0.717000
     19 O13          2.1380    -1.4730     0.7760 os         1 HWK      -0.338600
     20 O20          1.8070    -0.2790    -1.1450 os         1 HWK      -0.338600
     21 H1          -1.0730    -1.6080    -1.6390 hc         1 HWK       0.055200
     22 H2          -0.8370     0.1350    -1.5760 hc         1 HWK       0.055200
     23 H3           4.5610    -1.2110     2.1370 ha         1 HWK       0.126500
     24 H4           5.9740     1.5890    -0.8060 ha         1 HWK       0.105000
     25 H5          -4.6830     1.4530     1.1600 ha         1 HWK       0.123000
     26 H6          -6.1810    -0.4760     0.8670 ha         1 HWK       0.085000
     27 H7          -5.3370    -2.5180    -0.2750 ha         1 HWK       0.082000
     28 H8          -3.0210    -2.5790    -1.0970 ha         1 HWK       0.081000
     29 H9          -0.0660    -0.0050     0.7650 hc         1 HWK       0.073700
     30 H10         -0.4820    -1.7170     0.8240 hc         1 HWK       0.073700
     31 H11          1.2090    -2.2340    -0.8990 h2         1 HWK       0.050700
     32 H12          6.3320     0.3020     1.2580 ha         1 HWK       0.105000
     33 H13          3.8350     1.4010    -2.0670 ha         1 HWK       0.126500
@<TRIPOS>BOND
     1     1    10 1   
     2     1    11 1   
     3     1    21 1   
     4     1    22 1   
     5     2    13 ar  
     6     2    14 ar  
     7     2    23 1   
     8     3    14 ar  
     9     3    15 ar  
    10     3    24 1   
    11     4     5 1   
    12     4    17 1   
    13     4    18 1   
    14     5     6 ar  
    15     5    10 ar  
    16     6     7 ar  
    17     6    25 1   
    18     7     8 ar  
    19     7    26 1   
    20     8     9 ar  
    21     8    27 1   
    22     9    10 ar  
    23     9    28 1   
    24    11    12 1   
    25    11    29 1   
    26    11    30 1   
    27    12    19 1   
    28    12    20 1   
    29    12    31 1   
    30    13    16 ar  
    31    13    19 1   
    32    14    32 1   
    33    15    16 ar  
    34    15    33 1   
    35    16    20 1   
@<TRIPOS>SUBSTRUCTURE
     1 HWK         1 TEMP              0 ****  ****    0 ROOT
