@<TRIPOS>MOLECULE
HWK
   33    35     1     0     0
SMALL
No Charge or Current Charge


@<TRIPOS>ATOM
      1 C10         -1.1470    -0.8670    -1.0910 c3         1 HWK      -0.013100
      2 C15          4.3320    -0.7150     1.2370 ca         1 HWK      -0.106000
      3 C17          5.0230     1.1850    -0.1510 ca         1 HWK      -0.122500
      4 C02         -2.0190     1.8140     0.0230 c          1 HWK       0.709600
      5 C04         -2.9290     0.6110     0.0460 ca         1 HWK      -0.116600
      6 C05         -4.2100     0.7460     0.6250 ca         1 HWK      -0.092000
      7 C06         -5.0930    -0.3440     0.6700 ca         1 HWK      -0.141000
      8 C07         -4.7040    -1.5830     0.1410 ca         1 HWK      -0.144000
      9 C08         -3.4300    -1.7320    -0.4300 ca         1 HWK      -0.139000
     10 C09         -2.5330    -0.6450    -0.4860 ca         1 HWK      -0.062300
     11 C11         -0.0760    -1.1390    -0.0100 c3         1 HWK      -0.094400
     12 C12          1.3250    -1.4630    -0.5690 c5         1 HWK       0.386300
     13 C14          3.2060    -0.8470     0.4130 ca         1 HWK       0.067100
     14 C16          5.2490     0.3170     0.9450 ca         1 HWK      -0.122500
     15 C18          3.8770     1.0260    -0.9610 ca         1 HWK      -0.106000
     16 C19          2.9880    -0.0090    -0.6450 ca         1 HWK       0.067100
     17 O01         -1.8210     2.3700    -1.0490 o          1 HWK      -0.717000
     18 O03         -1.5970     2.2340     1.0910 o          1 HWK      -0.717000
     19 O13          2.2260    -1.7760     0.5500 os         1 HWK      -0.338600
     20 O20          1.8420    -0.3030    -1.3100 os         1 HWK      -0.338600
     21 H1          -1.1730    -1.7200    -1.7820 hc         1 HWK       0.055200
     22 H2          -0.8450    -0.0080    -1.7000 hc         1 HWK       0.055200
     23 H3           4.4910    -1.3890     2.0750 ha         1 HWK       0.126500
     24 H4           5.7340     1.9790    -0.3690 ha         1 HWK       0.105000
     25 H5          -4.5170     1.7040     1.0370 ha         1 HWK       0.123000
     26 H6          -6.0790    -0.2280     1.1160 ha         1 HWK       0.085000
     27 H7          -5.3860    -2.4290     0.1780 ha         1 HWK       0.082000
     28 H8          -3.1370    -2.7010    -0.8270 ha         1 HWK       0.081000
     29 H9          -0.0080    -0.2730     0.6570 hc         1 HWK       0.073700
     30 H10         -0.4120    -1.9800     0.6080 hc         1 HWK       0.073700
     31 H11          1.2670    -2.3290    -1.2410 h2         1 HWK       0.050700
     32 H12          6.1340     0.4470     1.5640 ha         1 HWK       0.105000
     33 H13          3.6880     1.6850    -1.8050 ha         1 HWK       0.126500
@<TRIPOS>BOND
     1     1    10 1   
     2     1    11 1   
     3     1    21 1   
     4     1    22 1   
     5     2    13 ar  
     6     2    14 ar  
     7     2    23 1   
     8     3    14 ar  
     9     3    15 ar  
    10     3    24 1   
    11     4     5 1   
    12     4    17 1   
    13     4    18 1   
    14     5     6 ar  
    15     5    10 ar  
    16     6     7 ar  
    17     6    25 1   
    18     7     8 ar  
    19     7    26 1   
    20     8     9 ar  
    21     8    27 1   
    22     9    10 ar  
    23     9    28 1   
    24    11    12 1   
    25    11    29 1   
    26    11    30 1   
    27    12    19 1   
    28    12    20 1   
    29    12    31 1   
    30    13    16 ar  
    31    13    19 1   
    32    14    32 1   
    33    15    16 ar  
    34    15    33 1   
    35    16    20 1   
@<TRIPOS>SUBSTRUCTURE
     1 HWK         1 TEMP              0 ****  ****    0 ROOT
