@<TRIPOS>MOLECULE
HWL
   54    57     1     0     0
SMALL
No Charge or Current Charge


@<TRIPOS>ATOM
      1 C1         -25.2240    -3.1980   -30.1300 c3         1 HWL      -0.027900
      2 C3         -25.5320    -3.2500   -32.6360 c          1 HWL       0.594900
      3 O2         -27.6010    -5.1340   -32.4070 os         1 HWL      -0.192200
      4 C4         -26.2540    -3.7650   -33.8350 ca         1 HWL      -0.252600
      5 C2         -26.0120    -3.7320   -31.3150 cc         1 HWL      -0.267400
      6 O1         -24.6040    -2.4590   -32.7630 o          1 HWL      -0.543100
      7 C10        -27.0630    -4.6410   -31.2470 cd         1 HWL       0.197900
      8 C11        -27.8370    -5.0750   -30.0510 ca         1 HWL      -0.073800
      9 C12        -28.5620    -6.2910   -30.0890 ca         1 HWL      -0.067500
     10 C13        -29.3090    -6.7250   -28.9800 ca         1 HWL      -0.120000
     11 C14        -29.3590    -5.9460   -27.8150 ca         1 HWL      -0.089000
     12 C15        -28.6680    -4.7270   -27.7670 ca         1 HWL      -0.120000
     13 C16        -27.9190    -4.2920   -28.8740 ca         1 HWL      -0.067500
     14 C17        -29.0750    -6.2380   -34.6280 c          1 HWL       0.619700
     15 C18        -31.0180    -7.2150   -35.6810 c3         1 HWL       0.168600
     16 C19        -31.8500    -7.0470   -36.9820 c3         1 HWL       0.166800
     17 C20        -31.9520    -6.7850   -39.4370 c6         1 HWL       0.168300
     18 C21        -31.1380    -6.7470   -40.7540 c6         1 HWL      -0.074900
     19 C22        -30.4170    -8.0920   -40.9980 c6         1 HWL      -0.075400
     20 C23        -29.5680    -8.4690   -39.7620 c6         1 HWL      -0.074900
     21 C24        -30.4240    -8.4560   -38.4710 c6         1 HWL       0.168300
     22 C5         -25.9200    -3.3140   -35.1280 ca         1 HWL       0.003000
     23 C6         -26.6150    -3.8040   -36.2420 ca         1 HWL      -0.170000
     24 C7         -27.6410    -4.7470   -36.0760 ca         1 HWL      -0.003000
     25 C8         -27.9790    -5.2140   -34.7870 ca         1 HWL      -0.174600
     26 C9         -27.2760    -4.7080   -33.6690 ca         1 HWL       0.204100
     27 N1         -31.0980    -7.1400   -38.2690 n3         1 HWL      -0.718600
     28 O3         -29.1210    -7.0530   -33.7160 o          1 HWL      -0.482000
     29 O4         -29.9610    -6.2340   -35.6730 os         1 HWL      -0.430100
     30 H1         -25.2660    -3.8840   -29.2760 hc         1 HWL       0.048367
     31 H2         -24.1580    -3.0830   -30.3610 hc         1 HWL       0.048367
     32 H3         -25.6020    -2.2190   -29.8100 hc         1 HWL       0.048367
     33 H5         -28.5350    -6.9230   -30.9730 ha         1 HWL       0.129000
     34 H6         -29.8480    -7.6690   -29.0250 ha         1 HWL       0.118000
     35 H7         -29.9390    -6.2810   -26.9580 ha         1 HWL       0.115000
     36 H8         -28.7220    -4.1090   -26.8730 ha         1 HWL       0.118000
     37 H9         -27.4440    -3.3190   -28.8140 ha         1 HWL       0.129000
     38 H10        -31.6780    -7.0770   -34.8150 h1         1 HWL       0.051200
     39 H11        -30.6090    -8.2320   -35.6350 h1         1 HWL       0.051200
     40 H12        -32.3450    -6.0670   -36.9230 h1         1 HWL       0.042200
     41 H13        -32.6500    -7.8000   -36.9690 h1         1 HWL       0.042200
     42 H15        -32.7710    -7.5120   -39.5430 h1         1 HWL       0.029700
     43 H16        -30.4020    -5.9340   -40.7050 hc         1 HWL       0.046700
     44 H17        -31.8040    -6.5190   -41.5970 hc         1 HWL       0.046700
     45 H18        -31.1570    -8.8800   -41.1950 hc         1 HWL       0.039700
     46 H19        -29.7790    -8.0250   -41.8900 hc         1 HWL       0.039700
     47 H20        -29.1210    -9.4620   -39.9020 hc         1 HWL       0.046700
     48 H21        -28.7350    -7.7610   -39.6540 hc         1 HWL       0.046700
     49 H22        -31.1720    -9.2610   -38.5280 h1         1 HWL       0.029700
     50 H23        -29.7620    -8.6880   -37.6250 h1         1 HWL       0.029700
     51 H24        -25.1270    -2.5810   -35.2750 ha         1 HWL       0.140000
     52 H25        -26.3580    -3.4530   -37.2390 ha         1 HWL       0.126000
     53 H26        -28.1600    -5.1190   -36.9580 ha         1 HWL       0.146000
     54 H14        -32.4140    -5.7990   -39.2840 h1         1 HWL       0.029700
@<TRIPOS>BOND
     1     1     5 1   
     2     1    30 1   
     3     1    31 1   
     4     1    32 1   
     5     2     4 1   
     6     2     5 1   
     7     2     6 2   
     8     3     7 1   
     9     3    26 1   
    10     4    22 ar  
    11     4    26 ar  
    12     5     7 2   
    13     7     8 1   
    14     8     9 ar  
    15     8    13 ar  
    16     9    10 ar  
    17     9    33 1   
    18    10    11 ar  
    19    10    34 1   
    20    11    12 ar  
    21    11    35 1   
    22    12    13 ar  
    23    12    36 1   
    24    13    37 1   
    25    14    25 1   
    26    14    28 2   
    27    14    29 1   
    28    15    16 1   
    29    15    29 1   
    30    15    38 1   
    31    15    39 1   
    32    16    27 1   
    33    16    40 1   
    34    16    41 1   
    35    17    18 1   
    36    17    27 1   
    37    17    42 1   
    38    17    54 1   
    39    18    19 1   
    40    18    43 1   
    41    18    44 1   
    42    19    20 1   
    43    19    45 1   
    44    19    46 1   
    45    20    21 1   
    46    20    47 1   
    47    20    48 1   
    48    21    27 1   
    49    21    49 1   
    50    21    50 1   
    51    22    23 ar  
    52    22    51 1   
    53    23    24 ar  
    54    23    52 1   
    55    24    25 ar  
    56    24    53 1   
    57    25    26 ar  
@<TRIPOS>SUBSTRUCTURE
     1 HWL         1 TEMP              0 ****  ****    0 ROOT
