@<TRIPOS>MOLECULE
HWL
   54    57     1     0     0
SMALL
bcc


@<TRIPOS>ATOM
      1 C1         -25.2860    -3.4100   -30.3490 c3         1 HWL      -0.027900
      2 C3         -25.6820    -3.3290   -32.8390 c          1 HWL       0.594900
      3 O2         -27.9130    -4.9920   -32.5280 os         1 HWL      -0.192200
      4 C4         -26.4750    -3.7950   -33.9830 ca         1 HWL      -0.252600
      5 C2         -26.1180    -3.8010   -31.5310 cc         1 HWL      -0.267400
      6 O1         -24.7100    -2.6030   -32.9840 o          1 HWL      -0.543100
      7 C10        -27.2240    -4.5770   -31.4470 cd         1 HWL       0.197900
      8 C11        -27.8360    -5.1030   -30.2160 ca         1 HWL      -0.073800
      9 C12        -28.2180    -6.4440   -30.1480 ca         1 HWL      -0.085500
     10 C13        -28.7990    -6.9440   -28.9940 ca         1 HWL      -0.138000
     11 C14        -29.0230    -6.1100   -27.9050 ca         1 HWL      -0.107000
     12 C15        -28.6630    -4.7710   -27.9750 ca         1 HWL      -0.138000
     13 C16        -28.0710    -4.2690   -29.1250 ca         1 HWL      -0.085500
     14 C17        -29.4180    -6.1180   -34.6270 c          1 HWL       0.668700
     15 C18        -31.3470    -7.0290   -35.6580 c3         1 HWL       0.145400
     16 C19        -31.9890    -6.9200   -37.0240 c3         1 HWL       0.166800
     17 C20        -31.6120    -6.6080   -39.3700 c6         1 HWL       0.168300
     18 C21        -30.5720    -6.6290   -40.4800 c6         1 HWL      -0.074900
     19 C22        -29.9890    -8.0260   -40.6480 c6         1 HWL      -0.075400
     20 C23        -29.4790    -8.5390   -39.3090 c6         1 HWL      -0.074900
     21 C24        -30.5630    -8.4440   -38.2450 c6         1 HWL       0.168300
     22 C5         -26.1590    -3.4140   -35.2910 ca         1 HWL      -0.015000
     23 C6         -26.9120    -3.8690   -36.3500 ca         1 HWL      -0.188000
     24 C7         -27.9890    -4.7220   -36.1210 ca         1 HWL      -0.021000
     25 C8         -28.3220    -5.1340   -34.8390 ca         1 HWL      -0.174600
     26 C9         -27.5540    -4.6460   -33.7700 ca         1 HWL       0.204100
     27 N1         -31.0520    -7.0810   -38.1160 n3         1 HWL      -0.718600
     28 O3         -29.4590    -6.9170   -33.7260 o          1 HWL      -0.531000
     29 O4         -30.3240    -6.0300   -35.5840 os         1 HWL      -0.406900
     30 H1         -25.4750    -4.0440   -29.4860 hc         1 HWL       0.048367
     31 H2         -24.2280    -3.4860   -30.5950 hc         1 HWL       0.048367
     32 H3         -25.4720    -2.3770   -30.0510 hc         1 HWL       0.048367
     33 H5         -28.0520    -7.1030   -30.9900 ha         1 HWL       0.147000
     34 H6         -29.0790    -7.9880   -28.9450 ha         1 HWL       0.136000
     35 H7         -29.4810    -6.5030   -27.0070 ha         1 HWL       0.133000
     36 H8         -28.8480    -4.1130   -27.1370 ha         1 HWL       0.136000
     37 H9         -27.8110    -3.2200   -29.1780 ha         1 HWL       0.147000
     38 H10        -32.0960    -6.8510   -34.8840 h1         1 HWL       0.051200
     39 H11        -30.9190    -8.0170   -35.4800 h1         1 HWL       0.051200
     40 H12        -32.4540    -5.9350   -37.1130 h1         1 HWL       0.042200
     41 H13        -32.8130    -7.6530   -37.0560 h1         1 HWL       0.042200
     42 H15        -32.4830    -7.2150   -39.6780 h1         1 HWL       0.029700
     43 H16        -29.7750    -5.9210   -40.2340 hc         1 HWL       0.046700
     44 H17        -31.0300    -6.2840   -41.4100 hc         1 HWL       0.046700
     45 H18        -30.7670    -8.7000   -41.0210 hc         1 HWL       0.039700
     46 H19        -29.1900    -8.0250   -41.3930 hc         1 HWL       0.039700
     47 H20        -29.1470    -9.5760   -39.3900 hc         1 HWL       0.046700
     48 H21        -28.6140    -7.9500   -38.9900 hc         1 HWL       0.046700
     49 H22        -31.3850    -9.1390   -38.4950 h1         1 HWL       0.029700
     50 H23        -30.1550    -8.7780   -37.2890 h1         1 HWL       0.029700
     51 H24        -25.3160    -2.7570   -35.4570 ha         1 HWL       0.158000
     52 H25        -26.6690    -3.5730   -37.3610 ha         1 HWL       0.144000
     53 H26        -28.5620    -5.0880   -36.9620 ha         1 HWL       0.164000
     54 H14        -31.9770    -5.5880   -39.2260 h1         1 HWL       0.029700
@<TRIPOS>BOND
     1     1     5 1   
     2     1    30 1   
     3     1    31 1   
     4     1    32 1   
     5     2     4 1   
     6     2     5 1   
     7     2     6 2   
     8     3     7 1   
     9     3    26 1   
    10     4    22 ar  
    11     4    26 ar  
    12     5     7 2   
    13     7     8 1   
    14     8     9 ar  
    15     8    13 ar  
    16     9    10 ar  
    17     9    33 1   
    18    10    11 ar  
    19    10    34 1   
    20    11    12 ar  
    21    11    35 1   
    22    12    13 ar  
    23    12    36 1   
    24    13    37 1   
    25    14    25 1   
    26    14    28 2   
    27    14    29 1   
    28    15    16 1   
    29    15    29 1   
    30    15    38 1   
    31    15    39 1   
    32    16    27 1   
    33    16    40 1   
    34    16    41 1   
    35    17    18 1   
    36    17    27 1   
    37    17    42 1   
    38    17    54 1   
    39    18    19 1   
    40    18    43 1   
    41    18    44 1   
    42    19    20 1   
    43    19    45 1   
    44    19    46 1   
    45    20    21 1   
    46    20    47 1   
    47    20    48 1   
    48    21    27 1   
    49    21    49 1   
    50    21    50 1   
    51    22    23 ar  
    52    22    51 1   
    53    23    24 ar  
    54    23    52 1   
    55    24    25 ar  
    56    24    53 1   
    57    25    26 ar  
@<TRIPOS>SUBSTRUCTURE
     1 HWL         1 TEMP              0 ****  ****    0 ROOT
