@<TRIPOS>MOLECULE
HWM
   31    33     1     0     0
SMALL
No Charge or Current Charge


@<TRIPOS>ATOM
      1 NAD         -4.7320     0.1390     1.0510 na         1 HWM      -0.208700
      2 NAA         -6.0320     0.1350     0.6620 nc         1 HWM      -0.195800
      3 NAB         -5.9810     0.0710    -0.6400 nd         1 HWM      -0.036000
      4 NAC         -4.6850     0.0330    -1.0990 nd         1 HWM      -0.381000
      5 CAE         -3.9060     0.0770    -0.0350 cc         1 HWM       0.449000
      6 CAF         -2.4350     0.0610    -0.0160 ca         1 HWM      -0.129500
      7 CAI         -1.7090    -0.0080    -1.2270 ca         1 HWM      -0.072000
      8 CAJ         -0.3030    -0.0240    -1.2200 ca         1 HWM      -0.103000
      9 CAG         -1.7170     0.1180     1.2020 ca         1 HWM      -0.072000
     10 CAH         -0.3100     0.1020     1.2020 ca         1 HWM      -0.103000
     11 CAK          0.4000     0.0210    -0.0060 ca         1 HWM       0.266000
     12 NAL          1.7970     0.0150    -0.0010 na         1 HWM      -0.515000
     13 CAM          2.4500     1.2610    -0.0640 cc         1 HWM      -0.046000
     14 CAN          3.8250     1.1660    -0.0540 cd         1 HWM      -0.030100
     15 OAO          4.6290     2.2650    -0.1090 oh         1 HWM      -0.524100
     16 CAS          4.5470    -0.1280     0.0150 c          1 HWM       0.546500
     17 OAT          5.7720    -0.1940     0.0220 o          1 HWM      -0.599100
     18 CAR          3.7130    -1.3130     0.0730 cc         1 HWM      -0.379200
     19 CAQ          2.3400    -1.2910     0.0680 cd         1 HWM       0.163800
     20 CAP          1.4920    -2.5460     0.1300 c3         1 HWM      -0.066900
     21 H1          -4.4580     0.1840     2.0240 hn         1 HWM       0.388000
     22 H2          -2.2310    -0.0490    -2.1810 ha         1 HWM       0.134000
     23 H3           0.2450    -0.0760    -2.1570 ha         1 HWM       0.139000
     24 H4          -2.2370     0.1770     2.1550 ha         1 HWM       0.134000
     25 H5           0.2330     0.1490     2.1420 ha         1 HWM       0.139000
     26 H6           1.8740     2.1820    -0.1130 h4         1 HWM       0.220000
     27 H7           5.5570     1.9280    -0.0880 ho         1 HWM       0.493000
     28 H8           4.2580    -2.2470     0.1230 ha         1 HWM       0.210000
     29 H9           0.8550    -2.6420    -0.7570 hc         1 HWM       0.060700
     30 H10          2.1170    -3.4450     0.1780 hc         1 HWM       0.060700
     31 H11          0.8490    -2.5500     1.0180 hc         1 HWM       0.060700
@<TRIPOS>BOND
     1     1     2 1   
     2     1     5 1   
     3     1    21 1   
     4     2     3 2   
     5     3     4 1   
     6     4     5 2   
     7     5     6 1   
     8     6     7 ar  
     9     6     9 ar  
    10     7     8 ar  
    11     7    22 1   
    12     8    11 ar  
    13     8    23 1   
    14     9    10 ar  
    15     9    24 1   
    16    10    11 ar  
    17    10    25 1   
    18    11    12 1   
    19    12    13 1   
    20    12    19 1   
    21    13    14 2   
    22    13    26 1   
    23    14    15 1   
    24    14    16 1   
    25    15    27 1   
    26    16    17 2   
    27    16    18 1   
    28    18    19 2   
    29    18    28 1   
    30    19    20 1   
    31    20    29 1   
    32    20    30 1   
    33    20    31 1   
@<TRIPOS>SUBSTRUCTURE
     1 HWM         1 TEMP              0 ****  ****    0 ROOT
