@<TRIPOS>MOLECULE
HWM
   31    33     1     0     0
SMALL
abcg2


@<TRIPOS>ATOM
      1 NAD         -4.7060     0.4120     1.0330 na         1 HWM      -0.208700
      2 NAA         -5.9600     0.3710     0.6220 nc         1 HWM      -0.195800
      3 NAB         -5.9230     0.0640    -0.6140 nd         1 HWM      -0.036000
      4 NAC         -4.6720    -0.0990    -1.0320 nd         1 HWM      -0.381000
      5 CAE         -3.8990     0.1210     0.0090 cc         1 HWM       0.449000
      6 CAF         -2.4440     0.0580     0.0310 ca         1 HWM      -0.129500
      7 CAI         -1.7620    -0.2030    -1.1570 ca         1 HWM      -0.072000
      8 CAJ         -0.3810    -0.2640    -1.1690 ca         1 HWM      -0.103000
      9 CAG         -1.7260     0.2520     1.2080 ca         1 HWM      -0.072000
     10 CAH         -0.3430     0.1830     1.2000 ca         1 HWM      -0.103000
     11 CAK          0.3220    -0.0770     0.0120 ca         1 HWM       0.266000
     12 NAL          1.7500    -0.1220     0.0050 na         1 HWM      -0.515000
     13 CAM          2.4190     1.0760     0.0620 cc         1 HWM      -0.046000
     14 CAN          3.7700     1.1220     0.0720 cd         1 HWM      -0.030100
     15 OAO          4.4290     2.2890     0.1260 oh         1 HWM      -0.524100
     16 CAS          4.5580    -0.0960     0.0210 c          1 HWM       0.546500
     17 OAT          5.7980    -0.0250     0.0290 o          1 HWM      -0.599100
     18 CAR          3.7900    -1.2960    -0.0300 cc         1 HWM      -0.379200
     19 CAQ          2.4220    -1.3010    -0.0360 cd         1 HWM       0.163800
     20 CAP          1.6390    -2.5740    -0.0740 c3         1 HWM      -0.066900
     21 H1          -4.4940     0.6420     1.9940 hn         1 HWM       0.388000
     22 H2          -2.3120    -0.3500    -2.0770 ha         1 HWM       0.134000
     23 H3           0.1470    -0.4550    -2.0940 ha         1 HWM       0.139000
     24 H4          -2.2250     0.4530     2.1470 ha         1 HWM       0.134000
     25 H5           0.2150     0.3290     2.1160 ha         1 HWM       0.139000
     26 H6           1.8050     1.9650     0.0930 h4         1 HWM       0.220000
     27 H7           5.3750     2.0730     0.1140 ho         1 HWM       0.493000
     28 H8           4.3090    -2.2440    -0.0600 ha         1 HWM       0.210000
     29 H9           1.0570    -2.6640    -0.9910 hc         1 HWM       0.060700
     30 H10          2.3190    -3.4210    -0.0250 hc         1 HWM       0.060700
     31 H11          0.9450    -2.6470     0.7630 hc         1 HWM       0.060700
@<TRIPOS>BOND
     1     1     2 1   
     2     1     5 1   
     3     1    21 1   
     4     2     3 2   
     5     3     4 1   
     6     4     5 2   
     7     5     6 1   
     8     6     7 ar  
     9     6     9 ar  
    10     7     8 ar  
    11     7    22 1   
    12     8    11 ar  
    13     8    23 1   
    14     9    10 ar  
    15     9    24 1   
    16    10    11 ar  
    17    10    25 1   
    18    11    12 1   
    19    12    13 1   
    20    12    19 1   
    21    13    14 2   
    22    13    26 1   
    23    14    15 1   
    24    14    16 1   
    25    15    27 1   
    26    16    17 2   
    27    16    18 1   
    28    18    19 2   
    29    18    28 1   
    30    19    20 1   
    31    20    29 1   
    32    20    30 1   
    33    20    31 1   
@<TRIPOS>SUBSTRUCTURE
     1 HWM         1 TEMP              0 ****  ****    0 ROOT
