@<TRIPOS>MOLECULE
HWN
   59    61     1     0     0
SMALL
No Charge or Current Charge


@<TRIPOS>ATOM
      1 C11          7.5570    54.7900    63.2700 c3         1 HWN      -0.080767
      2 C6           5.8040    51.1460    61.1880 ca         1 HWN       0.238300
      3 C8           7.6000    52.6420    61.9440 c2         1 HWN      -0.679400
      4 C3           6.8700    44.8940    58.2910 c1         1 HWN       0.300900
      5 N2           5.4020    48.8110    59.7890 nb         1 HWN      -0.367000
      6 C10          8.3950    53.5410    62.8890 c3         1 HWN       0.034200
      7 C4           6.6530    49.2770    59.9250 ca         1 HWN       0.488900
      8 C1           7.6100    47.0020    59.3950 c3         1 HWN       0.244800
      9 C7           6.0820    52.4210    61.9850 c5         1 HWN      -0.082500
     10 N3           4.5520    50.6750    61.0360 nb         1 HWN      -0.265000
     11 C9           6.8940    50.4610    60.6390 ca         1 HWN      -0.176500
     12 N1           6.7840    43.7390    58.4160 n1         1 HWN      -0.463000
     13 C2           6.9550    46.3490    58.1610 c3         1 HWN      -0.048300
     14 C5           4.4070    49.5270    60.3440 ca         1 HWN       0.448900
     15 N            7.6670    48.4840    59.3360 nh         1 HWN      -0.785300
     16 C            8.7490    49.0910    58.5270 c3         1 HWN       0.207100
     17 S            8.5230    51.1770    60.9920 sx         1 HWN       0.211500
     18 C13          8.7470    52.7460    64.1710 c3         1 HWN      -0.080767
     19 C12          9.6990    54.0130    62.1950 c3         1 HWN      -0.080767
     20 C14          2.0140    49.5110    61.0940 c3         1 HWN       0.219100
     21 C15          2.8040    47.9140    59.1880 c5         1 HWN       0.245500
     22 C19          1.3680    48.0730    58.5560 c5         1 HWN       0.139800
     23 N5           0.5740    46.9780    59.1810 n3         1 HWN      -0.725600
     24 C18         -0.7110    46.6680    58.5220 c3         1 HWN       0.158100
     25 C17          1.5380    45.8620    59.2770 c5         1 HWN       0.156800
     26 C16          2.7130    46.5750    59.9880 c5         1 HWN      -0.096400
     27 H1           6.6480    54.5110    63.8160 hc         1 HWN       0.027922
     28 H2           8.1340    55.4670    63.9130 hc         1 HWN       0.027922
     29 H3           7.2590    55.3490    62.3750 hc         1 HWN       0.027922
     30 H4           8.6280    46.6030    59.5100 h1         1 HWN       0.067200
     31 H5           7.0600    46.6930    60.2950 h1         1 HWN       0.067200
     32 H6           5.5460    53.2780    61.5600 hc         1 HWN       0.067700
     33 H7           5.7270    52.3110    63.0170 hc         1 HWN       0.067700
     34 H8           7.5310    46.5900    57.2620 hc         1 HWN       0.082200
     35 H9           5.9450    46.7460    58.0190 hc         1 HWN       0.082200
     36 H10          8.4670    50.0990    58.1950 h1         1 HWN       0.046700
     37 H11          9.6760    49.1590    59.1120 h1         1 HWN       0.046700
     38 H12          8.9490    48.4930    57.6290 h1         1 HWN       0.046700
     39 H13          7.8390    52.4020    64.6800 hc         1 HWN       0.027922
     40 H14          9.3570    51.8660    63.9350 hc         1 HWN       0.027922
     41 H15          9.3130    53.3700    64.8740 hc         1 HWN       0.027922
     42 H16         10.2510    54.7110    62.8360 hc         1 HWN       0.027922
     43 H17         10.3660    53.1720    61.9750 hc         1 HWN       0.027922
     44 H18          9.4750    54.5260    61.2510 hc         1 HWN       0.027922
     45 H19          1.6430    50.4860    60.7520 h1         1 HWN       0.050700
     46 H20          1.1670    48.8140    61.1320 h1         1 HWN       0.050700
     47 H21          2.3840    49.6150    62.1220 h1         1 HWN       0.050700
     48 H22          3.5450    47.8590    58.3780 h1         1 HWN       0.084700
     49 H23          1.4330    47.9290    57.4680 h1         1 HWN       0.047700
     50 H24          0.9240    49.0630    58.7200 h1         1 HWN       0.047700
     51 H26         -1.2360    45.8660    59.0580 h1         1 HWN       0.032033
     52 H27         -1.3610    47.5530    58.5090 h1         1 HWN       0.032033
     53 H28         -0.5510    46.3420    57.4860 h1         1 HWN       0.032033
     54 H29          1.1490    45.0200    59.8670 h1         1 HWN       0.038700
     55 H30          1.8290    45.4860    58.2860 h1         1 HWN       0.038700
     56 H31          3.6430    45.9990    59.9390 hc         1 HWN       0.057200
     57 H32          2.4810    46.7250    61.0490 hc         1 HWN       0.057200
     58 H33          8.6690    50.3490    62.1070 hs         1 HWN       0.144000
     59 N4           3.0920    49.0140    60.1900 nh         1 HWN      -0.754300
@<TRIPOS>BOND
     1     1     6 1   
     2     1    27 1   
     3     1    28 1   
     4     1    29 1   
     5     2     9 1   
     6     2    10 ar  
     7     2    11 ar  
     8     3     6 1   
     9     3     9 1   
    10     3    17 2   
    11     4    12 3   
    12     4    13 1   
    13     5     7 ar  
    14     5    14 ar  
    15     6    18 1   
    16     6    19 1   
    17     7    11 ar  
    18     7    15 1   
    19     8    13 1   
    20     8    15 1   
    21     8    30 1   
    22     8    31 1   
    23     9    32 1   
    24     9    33 1   
    25    10    14 ar  
    26    11    17 1   
    27    13    34 1   
    28    13    35 1   
    29    14    59 1   
    30    15    16 1   
    31    16    36 1   
    32    16    37 1   
    33    16    38 1   
    34    17    58 1   
    35    18    39 1   
    36    18    40 1   
    37    18    41 1   
    38    19    42 1   
    39    19    43 1   
    40    19    44 1   
    41    20    45 1   
    42    20    46 1   
    43    20    47 1   
    44    20    59 1   
    45    21    22 1   
    46    21    26 1   
    47    21    48 1   
    48    21    59 1   
    49    22    23 1   
    50    22    49 1   
    51    22    50 1   
    52    23    24 1   
    53    23    25 1   
    54    24    51 1   
    55    24    52 1   
    56    24    53 1   
    57    25    26 1   
    58    25    54 1   
    59    25    55 1   
    60    26    56 1   
    61    26    57 1   
@<TRIPOS>SUBSTRUCTURE
     1 HWN         1 TEMP              0 ****  ****    0 ROOT
