@<TRIPOS>MOLECULE
HWN
   59    61     1     0     0
SMALL
bcc


@<TRIPOS>ATOM
      1 C11          7.1960    54.8110    62.5490 c3         1 HWN      -0.080767
      2 C6           5.8250    50.6830    61.6660 ca         1 HWN       0.566600
      3 C8           7.4100    52.4720    61.8010 c2         1 HWN      -0.679400
      4 C3           6.1280    46.0350    56.9200 c1         1 HWN       0.211700
      5 N2           5.4620    48.4320    60.2680 nb         1 HWN      -0.893000
      6 C10          8.1590    53.6230    62.4400 c3         1 HWN       0.034200
      7 C4           6.6790    48.9690    60.2350 ca         1 HWN       0.817200
      8 C1           7.2400    47.0580    58.8730 c3         1 HWN       0.244800
      9 C7           6.1600    51.9210    62.4410 c5         1 HWN      -0.082500
     10 N3           4.6280    50.1330    61.7030 nb         1 HWN      -0.791000
     11 C9           6.8940    50.1670    60.9420 ca         1 HWN      -0.307100
     12 N1           5.8320    45.0300    56.4450 n1         1 HWN      -0.373800
     13 C2           6.5050    47.2910    57.5440 c3         1 HWN      -0.048300
     14 C5           4.4960    49.0050    60.9830 ca         1 HWN       0.974900
     15 N            7.6070    48.3040    59.5100 nh         1 HWN      -0.785300
     16 C            8.8860    48.8920    59.1690 c3         1 HWN       0.207100
     17 S            8.3350    51.1600    61.2180 sx         1 HWN       0.211500
     18 C13          8.6720    53.2770    63.8490 c3         1 HWN      -0.080767
     19 C12          9.3480    54.0460    61.5730 c3         1 HWN      -0.080767
     20 C14          2.1510    49.1150    61.5580 c3         1 HWN       0.219100
     21 C15          3.0940    47.1620    60.2570 c5         1 HWN       0.245500
     22 C19          2.6410    47.3700    58.8120 c5         1 HWN       0.139800
     23 N5           1.1990    47.4150    58.9200 n3         1 HWN      -0.725600
     24 C18          0.5000    47.4230    57.6610 c3         1 HWN       0.158100
     25 C17          0.8500    46.3060    59.7900 c5         1 HWN       0.156800
     26 C16          1.9740    46.2730    60.8390 c5         1 HWN      -0.096400
     27 H1           6.3350    54.5760    63.1780 hc         1 HWN       0.027922
     28 H2           7.6970    55.6740    62.9930 hc         1 HWN       0.027922
     29 H3           6.8230    55.1040    61.5660 hc         1 HWN       0.027922
     30 H4           8.1510    46.4870    58.6960 h1         1 HWN       0.067200
     31 H5           6.6130    46.4720    59.5400 h1         1 HWN       0.067200
     32 H6           5.3330    52.6330    62.3930 hc         1 HWN       0.067700
     33 H7           6.2520    51.6320    63.5040 hc         1 HWN       0.067700
     34 H8           7.1310    47.8490    56.8450 hc         1 HWN       0.082200
     35 H9           5.5980    47.8730    57.7160 hc         1 HWN       0.082200
     36 H10          8.7780    49.8580    58.6750 h1         1 HWN       0.046700
     37 H11          9.5320    49.0070    60.0410 h1         1 HWN       0.046700
     38 H12          9.4010    48.2290    58.4790 h1         1 HWN       0.046700
     39 H13          7.8570    52.9570    64.5030 hc         1 HWN       0.027922
     40 H14          9.4030    52.4660    63.8150 hc         1 HWN       0.027922
     41 H15          9.1550    54.1340    64.3250 hc         1 HWN       0.027922
     42 H16          9.8340    54.9320    61.9870 hc         1 HWN       0.027922
     43 H17         10.1110    53.2650    61.5090 hc         1 HWN       0.027922
     44 H18          9.0260    54.2790    60.5570 hc         1 HWN       0.027922
     45 H19          2.1970    50.1780    61.3320 h1         1 HWN       0.050700
     46 H20          1.2320    48.7280    61.1300 h1         1 HWN       0.050700
     47 H21          2.1040    49.0070    62.6440 h1         1 HWN       0.050700
     48 H22          4.0440    46.6360    60.2800 h1         1 HWN       0.084700
     49 H23          2.9870    46.5190    58.1960 h1         1 HWN       0.047700
     50 H24          3.0430    48.2830    58.3670 h1         1 HWN       0.047700
     51 H26         -0.5770    47.4810    57.8300 h1         1 HWN       0.032033
     52 H27          0.7900    48.2960    57.0750 h1         1 HWN       0.032033
     53 H28          0.6940    46.5280    57.0500 h1         1 HWN       0.032033
     54 H29         -0.1410    46.4520    60.2250 h1         1 HWN       0.038700
     55 H30          0.8250    45.3520    59.2380 h1         1 HWN       0.038700
     56 H31          2.3440    45.2580    60.9750 hc         1 HWN       0.057200
     57 H32          1.6410    46.6140    61.8180 hc         1 HWN       0.057200
     58 H33          8.8670    50.2890    62.1870 hs         1 HWN       0.144000
     59 N4           3.2820    48.4150    60.9800 nh         1 HWN      -0.754300
@<TRIPOS>BOND
     1     1     6 1   
     2     1    27 1   
     3     1    28 1   
     4     1    29 1   
     5     2     9 1   
     6     2    10 ar  
     7     2    11 ar  
     8     3     6 1   
     9     3     9 1   
    10     3    17 2   
    11     4    12 3   
    12     4    13 1   
    13     5     7 ar  
    14     5    14 ar  
    15     6    18 1   
    16     6    19 1   
    17     7    11 ar  
    18     7    15 1   
    19     8    13 1   
    20     8    15 1   
    21     8    30 1   
    22     8    31 1   
    23     9    32 1   
    24     9    33 1   
    25    10    14 ar  
    26    11    17 1   
    27    13    34 1   
    28    13    35 1   
    29    14    59 1   
    30    15    16 1   
    31    16    36 1   
    32    16    37 1   
    33    16    38 1   
    34    17    58 1   
    35    18    39 1   
    36    18    40 1   
    37    18    41 1   
    38    19    42 1   
    39    19    43 1   
    40    19    44 1   
    41    20    45 1   
    42    20    46 1   
    43    20    47 1   
    44    20    59 1   
    45    21    22 1   
    46    21    26 1   
    47    21    48 1   
    48    21    59 1   
    49    22    23 1   
    50    22    49 1   
    51    22    50 1   
    52    23    24 1   
    53    23    25 1   
    54    24    51 1   
    55    24    52 1   
    56    24    53 1   
    57    25    26 1   
    58    25    54 1   
    59    25    55 1   
    60    26    56 1   
    61    26    57 1   
@<TRIPOS>SUBSTRUCTURE
     1 HWN         1 TEMP              0 ****  ****    0 ROOT
