@<TRIPOS>MOLECULE
HWO
   77    81     1     0     0
SMALL
No Charge or Current Charge


@<TRIPOS>ATOM
      1 C1           3.6520    -1.2740     1.8250 c3         1 HWO      -0.089100
      2 C2           2.7390    -0.0350     2.0000 c6         1 HWO       0.152300
      3 C3           1.3530    -0.3770     2.6350 c6         1 HWO       0.144300
      4 O1           3.4560     0.8790     2.8530 os         1 HWO      -0.472000
      5 C4           0.5600     0.9430     2.9000 c6         1 HWO       0.179300
      6 C5           1.3930     1.9430     3.7540 c6         1 HWO       0.083300
      7 C6           2.7910     2.1460     3.0480 c6         1 HWO       0.375300
      8 O2           3.6740     3.0460     3.7630 os         1 HWO      -0.405000
      9 O3           6.4490     3.8340     4.7720 os         1 HWO      -0.436000
     10 C7           4.3590     2.5310     4.9500 c6         1 HWO       0.167300
     11 O4           6.2790     1.8220     3.5500 os         1 HWO      -0.298100
     12 C10          6.2510     4.5140     6.0350 c6         1 HWO       0.147300
     13 C11          5.9100     2.4940     4.7680 c6         1 HWO       0.385300
     14 C12          7.5820     1.4580     3.2900 ca         1 HWO       0.258100
     15 C13          7.8420     0.8360     2.0650 ca         1 HWO      -0.253000
     16 C14          9.1350     0.4210     1.7390 ca         1 HWO       0.281100
     17 C15         10.1920     0.6180     2.6390 ca         1 HWO      -0.420600
     18 C16          9.9360     1.2630     3.8600 ca         1 HWO       0.263100
     19 C17          8.6410     1.6680     4.1930 ca         1 HWO      -0.285000
     20 C18         12.3130     1.4650     4.3180 c6         1 HWO       0.236600
     21 C19         12.5600     0.1920     3.5030 c6         1 HWO      -0.208400
     22 C20         11.5790     0.1490     2.3500 c          1 HWO       0.615700
     23 C21         13.2330     1.5720     5.5400 ca         1 HWO      -0.089300
     24 C22         13.0840     0.6920     6.6320 ca         1 HWO      -0.083000
     25 C23         13.9320     0.7880     7.7500 ca         1 HWO      -0.158000
     26 C24         14.9450     1.7710     7.7860 ca         1 HWO       0.056100
     27 C25         15.0930     2.6510     6.6930 ca         1 HWO       0.120100
     28 C26         14.2450     2.5520     5.5790 ca         1 HWO      -0.111000
     29 C27         15.7360     1.0600    10.0190 c3         1 HWO       0.156900
     30 C28          7.0750     5.8430     6.0310 c3         1 HWO       0.170600
     31 C8           3.9930     3.3420     6.2430 c6         1 HWO       0.163300
     32 C9           4.7230     4.7220     6.3140 c6         1 HWO       0.118300
     33 O10          8.4890     5.6290     5.8520 oh         1 HWO      -0.706000
     34 O11          4.0910     5.6380     5.3880 oh         1 HWO      -0.669000
     35 O12          2.5790     3.5870     6.3250 oh         1 HWO      -0.711000
     36 O13          1.4660     1.4720     5.1260 oh         1 HWO      -0.718000
     37 O14         -0.6720     0.6600     3.5790 oh         1 HWO      -0.629000
     38 O15          0.5790    -1.2600     1.7940 oh         1 HWO      -0.708000
     39 O5          10.9450     1.5030     4.7630 os         1 HWO      -0.337100
     40 O6          11.9140    -0.2160     1.2300 o          1 HWO      -0.578100
     41 O7          16.0710     3.6030     6.7210 oh         1 HWO      -0.533100
     42 O8          15.8090     1.9110     8.8590 os         1 HWO      -0.366100
     43 O9           9.3500    -0.1820     0.5450 oh         1 HWO      -0.539100
     44 H1           4.6290    -0.9870     1.4180 hc         1 HWO       0.047367
     45 H2           3.8210    -1.7830     2.7810 hc         1 HWO       0.047367
     46 H3           3.2070    -1.9990     1.1330 hc         1 HWO       0.047367
     47 H4           2.5930     0.4360     1.0160 h1         1 HWO       0.043700
     48 H5           1.5420    -0.8610     3.6050 h1         1 HWO       0.069700
     49 H6           0.3470     1.4160     1.9300 h1         1 HWO       0.037700
     50 H7           0.8730     2.9120     3.7320 h1         1 HWO       0.045700
     51 H8           2.5970     2.5920     2.0600 h2         1 HWO       0.068700
     52 H9           4.0490     1.4930     5.1280 h1         1 HWO       0.088700
     53 H10          6.6650     3.8830     6.8360 h1         1 HWO       0.044700
     54 H11          6.3310     1.9340     5.6160 h2         1 HWO       0.031700
     55 H12          7.0300     0.6710     1.3640 ha         1 HWO       0.151000
     56 H13          8.4860     2.1560     5.1490 ha         1 HWO       0.149000
     57 H14         12.4790     2.3380     3.6680 h1         1 HWO       0.063700
     58 H15         12.3180    -0.6550     4.1560 hc         1 HWO       0.087700
     59 H16         13.5910     0.0910     3.1440 hc         1 HWO       0.087700
     60 H18         12.3050    -0.0670     6.6170 ha         1 HWO       0.126000
     61 H19         13.7880     0.0940     8.5730 ha         1 HWO       0.119000
     62 H20         14.3760     3.2390     4.7460 ha         1 HWO       0.132000
     63 H21         16.5080     1.3410    10.7460 h1         1 HWO       0.043033
     64 H22         14.7580     1.1520    10.5100 h1         1 HWO       0.043033
     65 H23         15.8940     0.0100     9.7440 h1         1 HWO       0.043033
     66 H24          6.6930     6.4880     5.2280 h1         1 HWO       0.029700
     67 H25          6.8940     6.3610     6.9830 h1         1 HWO       0.029700
     68 H26          4.3130     2.7460     7.1100 h1         1 HWO       0.033700
     69 H27          4.6150     5.1110     7.3370 h1         1 HWO       0.026700
     70 H28          8.9080     6.5180     5.7810 ho         1 HWO       0.509000
     71 H29          4.4770     6.5310     5.5350 ho         1 HWO       0.496000
     72 H30          2.5050     4.5020     5.9480 ho         1 HWO       0.514000
     73 H31          1.8600     2.2270     5.6550 ho         1 HWO       0.528000
     74 H32         -0.4350     0.7540     4.5310 ho         1 HWO       0.441000
     75 H33         -0.3480    -1.1880     2.1250 ho         1 HWO       0.505000
     76 H35         16.5400     3.4950     7.5790 ho         1 HWO       0.482000
     77 H36         10.3270    -0.3290     0.4940 ho         1 HWO       0.516000
@<TRIPOS>BOND
     1     1     2 1   
     2     1    44 1   
     3     1    45 1   
     4     1    46 1   
     5     2     3 1   
     6     2     4 1   
     7     2    47 1   
     8     3     5 1   
     9     3    38 1   
    10     3    48 1   
    11     4     7 1   
    12     5     6 1   
    13     5    37 1   
    14     5    49 1   
    15     6     7 1   
    16     6    36 1   
    17     6    50 1   
    18     7     8 1   
    19     7    51 1   
    20     8    10 1   
    21     9    12 1   
    22     9    13 1   
    23    10    13 1   
    24    10    31 1   
    25    10    52 1   
    26    11    13 1   
    27    11    14 1   
    28    12    30 1   
    29    12    32 1   
    30    12    53 1   
    31    13    54 1   
    32    14    15 ar  
    33    14    19 ar  
    34    15    16 ar  
    35    15    55 1   
    36    16    17 ar  
    37    16    43 1   
    38    17    18 ar  
    39    17    22 1   
    40    18    19 ar  
    41    18    39 1   
    42    19    56 1   
    43    20    21 1   
    44    20    23 1   
    45    20    39 1   
    46    20    57 1   
    47    21    22 1   
    48    21    58 1   
    49    21    59 1   
    50    22    40 2   
    51    23    24 ar  
    52    23    28 ar  
    53    24    25 ar  
    54    24    60 1   
    55    25    26 ar  
    56    25    61 1   
    57    26    27 ar  
    58    26    42 1   
    59    27    28 ar  
    60    27    41 1   
    61    28    62 1   
    62    29    42 1   
    63    29    63 1   
    64    29    64 1   
    65    29    65 1   
    66    30    33 1   
    67    30    66 1   
    68    30    67 1   
    69    31    32 1   
    70    31    35 1   
    71    31    68 1   
    72    32    34 1   
    73    32    69 1   
    74    33    70 1   
    75    34    71 1   
    76    35    72 1   
    77    36    73 1   
    78    37    74 1   
    79    38    75 1   
    80    41    76 1   
    81    43    77 1   
@<TRIPOS>SUBSTRUCTURE
     1 HWO         1 TEMP              0 ****  ****    0 ROOT
