@<TRIPOS>MOLECULE
HWO
   77    81     1     0     0
SMALL
abcg2


@<TRIPOS>ATOM
      1 C1           3.5850    -1.1410     1.7720 c3         1 HWO      -0.089100
      2 C2           2.8370     0.1640     1.9510 c6         1 HWO       0.152300
      3 C3           1.3620    -0.0460     2.3330 c6         1 HWO       0.144300
      4 O1           3.5190     0.9070     2.9440 os         1 HWO      -0.472000
      5 C4           0.7220     1.3030     2.6330 c6         1 HWO       0.179300
      6 C5           1.5400     2.0550     3.6860 c6         1 HWO       0.083300
      7 C6           2.9750     2.1750     3.1580 c6         1 HWO       0.375300
      8 O2           3.8220     2.9230     3.9690 os         1 HWO      -0.405000
      9 O3           6.4100     3.6780     4.9260 os         1 HWO      -0.436000
     10 C7           4.3980     2.3590     5.1230 c6         1 HWO       0.167300
     11 O4           6.2660     1.7380     3.8000 os         1 HWO      -0.298100
     12 C10          6.2010     4.3880     6.1310 c6         1 HWO       0.147300
     13 C11          5.9220     2.3750     4.9880 c6         1 HWO       0.385300
     14 C12          7.5330     1.3590     3.5670 ca         1 HWO       0.258100
     15 C13          7.7070     0.6260     2.3930 ca         1 HWO      -0.253000
     16 C14          8.9700     0.1810     2.0490 ca         1 HWO       0.281100
     17 C15         10.0820     0.4590     2.8830 ca         1 HWO      -0.420600
     18 C16          9.8660     1.2090     4.0530 ca         1 HWO       0.263100
     19 C17          8.6060     1.6660     4.4030 ca         1 HWO      -0.285000
     20 C18         12.1990     1.4600     4.3710 c6         1 HWO       0.236600
     21 C19         12.4360     0.1460     3.6440 c6         1 HWO      -0.208400
     22 C20         11.3860    -0.0920     2.5970 c          1 HWO       0.615700
     23 C21         13.1490     1.6400     5.5200 ca         1 HWO      -0.089300
     24 C22         12.9470     0.9950     6.7300 ca         1 HWO      -0.083000
     25 C23         13.8770     1.1240     7.7570 ca         1 HWO      -0.158000
     26 C24         15.0210     1.8850     7.5760 ca         1 HWO       0.056100
     27 C25         15.2330     2.5350     6.3490 ca         1 HWO       0.120100
     28 C26         14.2950     2.4110     5.3400 ca         1 HWO      -0.111000
     29 C27         15.8570     1.4600     9.7590 c3         1 HWO       0.156900
     30 C28          6.9510     5.6970     6.0400 c3         1 HWO       0.170600
     31 C8           4.0550     3.1780     6.3710 c6         1 HWO       0.163300
     32 C9           4.7010     4.5670     6.3830 c6         1 HWO       0.118300
     33 O10          8.3290     5.4180     5.9880 oh         1 HWO      -0.706000
     34 O11          4.0840     5.3940     5.4310 oh         1 HWO      -0.669000
     35 O12          2.6560     3.2420     6.5010 oh         1 HWO      -0.711000
     36 O13          1.4570     1.3690     4.9030 oh         1 HWO      -0.718000
     37 O14         -0.6080     1.0940     3.0320 oh         1 HWO      -0.629000
     38 O15          0.6570    -0.6370     1.2670 oh         1 HWO      -0.708000
     39 O5          10.8680     1.5200     4.8840 os         1 HWO      -0.337100
     40 O6          11.6180    -0.7560     1.5890 o          1 HWO      -0.578100
     41 O7          16.3340     3.2830     6.1330 oh         1 HWO      -0.533100
     42 O8          15.9930     2.0740     8.4930 os         1 HWO      -0.366100
     43 O9           9.1150    -0.5260     0.9340 oh         1 HWO      -0.539100
     44 H1           4.6320    -0.9570     1.5320 hc         1 HWO       0.047367
     45 H2           3.5400    -1.7470     2.6790 hc         1 HWO       0.047367
     46 H3           3.1630    -1.7210     0.9530 hc         1 HWO       0.047367
     47 H4           2.8530     0.7260     1.0030 h1         1 HWO       0.043700
     48 H5           1.3190    -0.6720     3.2350 h1         1 HWO       0.069700
     49 H6           0.7630     1.8990     1.7060 h1         1 HWO       0.037700
     50 H7           1.1350     3.0760     3.7710 h1         1 HWO       0.045700
     51 H8           2.9390     2.7400     2.2110 h2         1 HWO       0.068700
     52 H9           4.0800     1.3250     5.2850 h1         1 HWO       0.088700
     53 H10          6.6110     3.8150     6.9790 h1         1 HWO       0.044700
     54 H11          6.3530     1.8410     5.8530 h2         1 HWO       0.031700
     55 H12          6.8570     0.4010     1.7620 ha         1 HWO       0.151000
     56 H13          8.5030     2.2700     5.2930 ha         1 HWO       0.149000
     57 H14         12.3260     2.2850     3.6580 h1         1 HWO       0.063700
     58 H15         12.4020    -0.6910     4.3510 hc         1 HWO       0.087700
     59 H16         13.4280     0.1460     3.1910 hc         1 HWO       0.087700
     60 H18         12.0690     0.3860     6.8970 ha         1 HWO       0.126000
     61 H19         13.6940     0.6180     8.6950 ha         1 HWO       0.119000
     62 H20         14.4660     2.9240     4.4000 ha         1 HWO       0.132000
     63 H21         16.7380     1.7340    10.3330 h1         1 HWO       0.043033
     64 H22         14.9670     1.8130    10.2860 h1         1 HWO       0.043033
     65 H23         15.8120     0.3710     9.6780 h1         1 HWO       0.043033
     66 H24          6.6150     6.2520     5.1560 h1         1 HWO       0.029700
     67 H25          6.6890     6.2990     6.9210 h1         1 HWO       0.029700
     68 H26          4.4950     2.6300     7.2170 h1         1 HWO       0.033700
     69 H27          4.5830     4.9750     7.3970 h1         1 HWO       0.026700
     70 H28          8.8000     6.2460     5.8550 ho         1 HWO       0.509000
     71 H29          4.1660     6.3070     5.7180 ho         1 HWO       0.496000
     72 H30          2.4280     3.5060     7.3990 ho         1 HWO       0.514000
     73 H31          1.7560     1.9710     5.6050 ho         1 HWO       0.528000
     74 H32         -1.0310     1.9520     3.1370 ho         1 HWO       0.441000
     75 H33          0.8240    -1.5840     1.2730 ho         1 HWO       0.505000
     76 H35         16.8940     3.2860     6.9180 ho         1 HWO       0.482000
     77 H36         10.0620    -0.7850     0.8590 ho         1 HWO       0.516000
@<TRIPOS>BOND
     1     1     2 1   
     2     1    44 1   
     3     1    45 1   
     4     1    46 1   
     5     2     3 1   
     6     2     4 1   
     7     2    47 1   
     8     3     5 1   
     9     3    38 1   
    10     3    48 1   
    11     4     7 1   
    12     5     6 1   
    13     5    37 1   
    14     5    49 1   
    15     6     7 1   
    16     6    36 1   
    17     6    50 1   
    18     7     8 1   
    19     7    51 1   
    20     8    10 1   
    21     9    12 1   
    22     9    13 1   
    23    10    13 1   
    24    10    31 1   
    25    10    52 1   
    26    11    13 1   
    27    11    14 1   
    28    12    30 1   
    29    12    32 1   
    30    12    53 1   
    31    13    54 1   
    32    14    15 ar  
    33    14    19 ar  
    34    15    16 ar  
    35    15    55 1   
    36    16    17 ar  
    37    16    43 1   
    38    17    18 ar  
    39    17    22 1   
    40    18    19 ar  
    41    18    39 1   
    42    19    56 1   
    43    20    21 1   
    44    20    23 1   
    45    20    39 1   
    46    20    57 1   
    47    21    22 1   
    48    21    58 1   
    49    21    59 1   
    50    22    40 2   
    51    23    24 ar  
    52    23    28 ar  
    53    24    25 ar  
    54    24    60 1   
    55    25    26 ar  
    56    25    61 1   
    57    26    27 ar  
    58    26    42 1   
    59    27    28 ar  
    60    27    41 1   
    61    28    62 1   
    62    29    42 1   
    63    29    63 1   
    64    29    64 1   
    65    29    65 1   
    66    30    33 1   
    67    30    66 1   
    68    30    67 1   
    69    31    32 1   
    70    31    35 1   
    71    31    68 1   
    72    32    34 1   
    73    32    69 1   
    74    33    70 1   
    75    34    71 1   
    76    35    72 1   
    77    36    73 1   
    78    37    74 1   
    79    38    75 1   
    80    41    76 1   
    81    43    77 1   
@<TRIPOS>SUBSTRUCTURE
     1 HWO         1 TEMP              0 ****  ****    0 ROOT
