@<TRIPOS>MOLECULE
HWQ
   45    47     1     0     0
SMALL
No Charge or Current Charge


@<TRIPOS>ATOM
      1 C1           8.0090    48.2180    58.4370 c3         1 HWQ       0.245800
      2 C2           8.1560    46.7110    58.7290 c3         1 HWQ      -0.047300
      3 C3           7.9440    45.8960    57.5320 c1         1 HWQ       0.298900
      4 C4           7.0060    49.4480    60.4050 ca         1 HWQ       0.470900
      5 C5           4.8870    48.8810    61.1250 ca         1 HWQ       0.436900
      6 C6           5.7230    50.8830    61.8140 ca         1 HWQ       0.204800
      7 C7           5.6990    52.1550    62.4850 cc         1 HWQ      -0.306800
      8 N1           7.7470    45.2470    56.5850 n1         1 HWQ      -0.460000
      9 N2           5.9890    48.5690    60.4110 nb         1 HWQ      -0.352000
     10 N3           4.7050    50.0130    61.8390 nb         1 HWQ      -0.258000
     11 C9           6.8860    50.6540    61.1160 ca         1 HWQ      -0.377000
     12 C8           6.8590    52.8780    62.2570 cd         1 HWQ      -0.141400
     13 N            8.1390    49.0810    59.6400 nh         1 HWQ      -0.790300
     14 C            9.5130    49.4170    60.0790 c3         1 HWQ       0.211100
     15 S            8.0260    52.0200    61.2100 ss         1 HWQ       0.072400
     16 N4           3.8250    47.9330    61.1250 nh         1 HWQ      -0.778300
     17 C10          2.7780    47.9660    62.1820 c3         1 HWQ       0.226100
     18 C11          3.7830    46.8280    60.1110 c6         1 HWQ       0.241500
     19 C15          4.3550    45.5130    60.6930 c6         1 HWQ      -0.128900
     20 C14          4.3310    44.3970    59.6250 c6         1 HWQ       0.149300
     21 N5           2.9620    44.2090    59.0840 n7         1 HWQ      -0.842400
     22 C13          2.3970    45.4470    58.4940 c6         1 HWQ       0.149300
     23 C12          2.3610    46.5850    59.5380 c6         1 HWQ      -0.128900
     24 H1           8.7650    48.5110    57.6950 h1         1 HWQ       0.065700
     25 H2           7.0340    48.3980    57.9600 h1         1 HWQ       0.065700
     26 H3           9.1560    46.5040    59.1250 hc         1 HWQ       0.082200
     27 H4           7.4330    46.4040    59.4910 hc         1 HWQ       0.082200
     28 H5           4.8730    52.5140    63.0930 ha         1 HWQ       0.217000
     29 H6           7.1130    53.8650    62.6330 h4         1 HWQ       0.217000
     30 H7           9.5580    49.5090    61.1730 h1         1 HWQ       0.047367
     31 H8          10.2220    48.6310    59.7880 h1         1 HWQ       0.047367
     32 H9           9.8420    50.3620    59.6290 h1         1 HWQ       0.047367
     33 H10          3.1940    48.3170    63.1360 h1         1 HWQ       0.040700
     34 H11          1.9570    48.6330    61.8890 h1         1 HWQ       0.040700
     35 H12          2.3680    46.9650    62.3670 h1         1 HWQ       0.040700
     36 H13          4.4020    47.0980    59.2400 h1         1 HWQ       0.088700
     37 H14          3.7750    45.1980    61.5710 hc         1 HWQ       0.049200
     38 H15          5.3860    45.6700    61.0370 hc         1 HWQ       0.049200
     39 H16          4.6890    43.4540    60.0660 h1         1 HWQ       0.055950
     40 H17          5.0180    44.6580    58.8050 h1         1 HWQ       0.055950
     41 H18          2.3490    43.9080    59.8530 hn         1 HWQ       0.402000
     42 H20          3.0060    45.7570    57.6310 h1         1 HWQ       0.055950
     43 H21          1.3780    45.2520    58.1240 h1         1 HWQ       0.055950
     44 H22          1.9830    47.5040    59.0700 hc         1 HWQ       0.049200
     45 H23          1.6510    46.3160    60.3310 hc         1 HWQ       0.049200
@<TRIPOS>BOND
     1     1     2 1   
     2     1    13 1   
     3     1    24 1   
     4     1    25 1   
     5     2     3 1   
     6     2    26 1   
     7     2    27 1   
     8     3     8 3   
     9     4     9 ar  
    10     4    11 ar  
    11     4    13 1   
    12     5     9 ar  
    13     5    10 ar  
    14     5    16 1   
    15     6     7 1   
    16     6    10 ar  
    17     6    11 ar  
    18     7    12 2   
    19     7    28 1   
    20    11    15 1   
    21    12    15 1   
    22    12    29 1   
    23    13    14 1   
    24    14    30 1   
    25    14    31 1   
    26    14    32 1   
    27    16    17 1   
    28    16    18 1   
    29    17    33 1   
    30    17    34 1   
    31    17    35 1   
    32    18    19 1   
    33    18    23 1   
    34    18    36 1   
    35    19    20 1   
    36    19    37 1   
    37    19    38 1   
    38    20    21 1   
    39    20    39 1   
    40    20    40 1   
    41    21    22 1   
    42    21    41 1   
    43    22    23 1   
    44    22    42 1   
    45    22    43 1   
    46    23    44 1   
    47    23    45 1   
@<TRIPOS>SUBSTRUCTURE
     1 HWQ         1 TEMP              0 ****  ****    0 ROOT
