@<TRIPOS>MOLECULE
HWQ
   45    47     1     0     0
SMALL
bcc


@<TRIPOS>ATOM
      1 C1           7.7750    48.1130    58.4370 c3         1 HWQ       0.245800
      2 C2           8.0960    46.7830    59.1380 c3         1 HWQ      -0.047300
      3 C3           7.8990    45.6560    58.2430 c1         1 HWQ       0.209700
      4 C4           6.9460    49.4950    60.2270 ca         1 HWQ       0.799200
      5 C5           4.9220    48.8090    61.1130 ca         1 HWQ       0.962900
      6 C6           5.8290    50.6710    61.9890 ca         1 HWQ       0.533100
      7 C7           5.9010    51.8200    62.8420 cc         1 HWQ      -0.256800
      8 N1           7.7220    44.7770    57.5210 n1         1 HWQ      -0.370800
      9 N2           5.9310    48.6490    60.2450 nb         1 HWQ      -0.878000
     10 N3           4.8200    49.7920    62.0010 nb         1 HWQ      -0.784000
     11 C9           6.9340    50.5860    61.1330 ca         1 HWQ      -0.380700
     12 C8           7.0130    52.5560    62.6170 cd         1 HWQ      -0.091400
     13 N            7.9260    49.2430    59.3280 nh         1 HWQ      -0.790300
     14 C            9.1880    49.9550    59.3310 c3         1 HWQ       0.211100
     15 S            8.0240    51.9170    61.3860 ss         1 HWQ      -0.054500
     16 N4           3.9280    47.8860    61.0890 nh         1 HWQ      -0.778300
     17 C10          2.8670    47.9820    62.0680 c3         1 HWQ       0.226100
     18 C11          3.9320    46.7710    60.1550 c6         1 HWQ       0.241500
     19 C15          4.1230    45.4240    60.8500 c6         1 HWQ      -0.128900
     20 C14          4.1270    44.2950    59.8190 c6         1 HWQ       0.149300
     21 N5           2.9600    44.2770    58.9530 n7         1 HWQ      -0.787200
     22 C13          2.7550    45.5610    58.3050 c6         1 HWQ       0.149300
     23 C12          2.6860    46.7440    59.2710 c6         1 HWQ      -0.128900
     24 H1           8.4470    48.2550    57.5920 h1         1 HWQ       0.065700
     25 H2           6.7610    48.0830    58.0430 h1         1 HWQ       0.065700
     26 H3           9.1280    46.7690    59.4940 hc         1 HWQ       0.082200
     27 H4           7.4410    46.6510    60.0000 hc         1 HWQ       0.082200
     28 H5           5.1460    52.0640    63.5740 ha         1 HWQ       0.167000
     29 H6           7.3080    53.4660    63.1180 h4         1 HWQ       0.167000
     30 H7           9.6640    49.9420    60.3120 h1         1 HWQ       0.047367
     31 H8           9.8690    49.4640    58.6410 h1         1 HWQ       0.047367
     32 H9           9.0810    50.9870    58.9940 h1         1 HWQ       0.047367
     33 H10          3.2570    48.0000    63.0860 h1         1 HWQ       0.040700
     34 H11          2.2560    48.8760    61.9300 h1         1 HWQ       0.040700
     35 H12          2.2180    47.1160    61.9770 h1         1 HWQ       0.040700
     36 H13          4.7910    46.9250    59.5010 h1         1 HWQ       0.088700
     37 H14          3.3190    45.2500    61.5750 hc         1 HWQ       0.049200
     38 H15          5.0620    45.4230    61.4110 hc         1 HWQ       0.049200
     39 H16          4.2120    43.3280    60.3190 h1         1 HWQ       0.055950
     40 H17          5.0150    44.3940    59.1830 h1         1 HWQ       0.055950
     41 H18          2.1410    44.0540    59.5090 hn         1 HWQ       0.346800
     42 H20          3.5800    45.7190    57.6010 h1         1 HWQ       0.055950
     43 H21          1.8430    45.5130    57.7060 h1         1 HWQ       0.055950
     44 H22          2.6070    47.6810    58.7130 hc         1 HWQ       0.049200
     45 H23          1.7800    46.6550    59.8800 hc         1 HWQ       0.049200
@<TRIPOS>BOND
     1     1     2 1   
     2     1    13 1   
     3     1    24 1   
     4     1    25 1   
     5     2     3 1   
     6     2    26 1   
     7     2    27 1   
     8     3     8 3   
     9     4     9 ar  
    10     4    11 ar  
    11     4    13 1   
    12     5     9 ar  
    13     5    10 ar  
    14     5    16 1   
    15     6     7 1   
    16     6    10 ar  
    17     6    11 ar  
    18     7    12 2   
    19     7    28 1   
    20    11    15 1   
    21    12    15 1   
    22    12    29 1   
    23    13    14 1   
    24    14    30 1   
    25    14    31 1   
    26    14    32 1   
    27    16    17 1   
    28    16    18 1   
    29    17    33 1   
    30    17    34 1   
    31    17    35 1   
    32    18    19 1   
    33    18    23 1   
    34    18    36 1   
    35    19    20 1   
    36    19    37 1   
    37    19    38 1   
    38    20    21 1   
    39    20    39 1   
    40    20    40 1   
    41    21    22 1   
    42    21    41 1   
    43    22    23 1   
    44    22    42 1   
    45    22    43 1   
    46    23    44 1   
    47    23    45 1   
@<TRIPOS>SUBSTRUCTURE
     1 HWQ         1 TEMP              0 ****  ****    0 ROOT
