@<TRIPOS>MOLECULE
HWR
   75    79     1     0     0
SMALL
No Charge or Current Charge


@<TRIPOS>ATOM
      1 C6          12.0590     5.7470   -28.4700 c6         1 HWR       0.399300
      2 C5          11.1450     6.6510   -27.5480 c6         1 HWR       0.151300
      3 C8          12.3690     2.4960   -28.6820 c6         1 HWR       0.129300
      4 C4          12.0280     7.7600   -26.9100 c6         1 HWR       0.095300
      5 C2          12.8600     7.8880   -29.3570 c6         1 HWR       0.197300
      6 C1          13.9860     8.4270   -30.2770 c3         1 HWR      -0.078100
      7 C10         14.5730     1.1650   -28.8990 c6         1 HWR       0.181300
      8 C11         14.5380     3.1060   -27.4440 c6         1 HWR       0.400300
      9 C12         16.9270     3.5860   -27.0850 ca         1 HWR       0.212100
     10 C13         18.0990     4.1620   -27.5870 ca         1 HWR      -0.210000
     11 C14         19.2990     4.0590   -26.8780 ca         1 HWR       0.222100
     12 C15         19.3560     3.3890   -25.6420 ca         1 HWR      -0.297300
     13 C16         18.1650     2.8240   -25.1310 ca         1 HWR       0.209100
     14 C17         16.9660     2.9120   -25.8490 ca         1 HWR      -0.249000
     15 C18         19.2560     2.2730   -23.0220 c6         1 HWR       0.237600
     16 C19         20.5820     2.1630   -23.7930 c6         1 HWR      -0.140400
     17 C20         20.6510     3.3000   -24.8220 c6         1 HWR       0.236600
     18 C21         19.1140     1.2090   -21.9290 ca         1 HWR      -0.131300
     19 C22         19.0040    -0.1560   -22.2660 ca         1 HWR      -0.046500
     20 C23         18.8780    -1.1260   -21.2560 ca         1 HWR      -0.181500
     21 C24         18.8600    -0.7410   -19.9080 ca         1 HWR       0.150100
     22 C25         18.9670     0.6160   -19.5640 ca         1 HWR      -0.181500
     23 C26         19.0930     1.5890   -20.5710 ca         1 HWR      -0.046500
     24 C27         15.0560    -0.3230   -28.9290 c3         1 HWR       0.169600
     25 C3          12.6860     8.6750   -28.0010 c6         1 HWR       0.115300
     26 C7          13.3550     3.6560   -28.3130 c6         1 HWR       0.142300
     27 C9          13.1030     1.3290   -29.4170 c6         1 HWR       0.094300
     28 O1          13.1340     6.4950   -29.1110 os         1 HWR      -0.477000
     29 O10         13.0650     1.5540   -30.8490 oh         1 HWR      -0.717000
     30 O11         11.2880     2.9040   -29.5310 oh         1 HWR      -0.711000
     31 O12         10.0510     7.2880   -28.2550 oh         1 HWR      -0.725000
     32 O13         11.2770     8.5570   -25.9700 oh         1 HWR      -0.675000
     33 O14         13.9180     9.2090   -27.4630 oh         1 HWR      -0.705000
     34 O2          12.7050     4.7680   -27.6300 os         1 HWR      -0.450000
     35 O3          14.6630     1.6640   -27.5440 os         1 HWR      -0.461000
     36 O4          15.7780     3.7290   -27.8360 os         1 HWR      -0.333100
     37 O5          18.1430     2.1520   -23.9280 os         1 HWR      -0.343100
     38 O6          21.7870     3.1100   -25.6690 oh         1 HWR      -0.667000
     39 O7          18.7370    -1.6890   -18.9380 oh         1 HWR      -0.531100
     40 O8          20.4290     4.5880   -27.4040 oh         1 HWR      -0.550100
     41 O9          16.4010    -0.4980   -28.4420 oh         1 HWR      -0.699000
     42 H1          11.4250     5.2670   -29.2270 h2         1 HWR       0.067700
     43 H2          10.7460     6.0160   -26.7420 h1         1 HWR       0.068700
     44 H3          11.9650     2.1000   -27.7370 h1         1 HWR       0.051700
     45 H4          12.8410     7.2410   -26.3800 h1         1 HWR       0.078700
     46 H5          11.9230     7.9570   -29.9290 h1         1 HWR       0.051700
     47 H6          13.8350     9.4880   -30.5060 hc         1 HWR       0.048700
     48 H7          14.9750     8.3120   -29.8170 hc         1 HWR       0.048700
     49 H8          14.0000     7.8850   -31.2300 hc         1 HWR       0.048700
     50 H9          15.2550     1.7490   -29.5360 h1         1 HWR       0.076700
     51 H10         14.3280     3.3630   -26.3960 h2         1 HWR       0.055700
     52 H11         18.0770     4.6810   -28.5400 ha         1 HWR       0.161000
     53 H12         16.0810     2.4520   -25.4250 ha         1 HWR       0.144000
     54 H13         19.2030     3.2700   -22.5600 h1         1 HWR       0.046700
     55 H14         20.6430     1.1880   -24.2960 hc         1 HWR       0.067200
     56 H15         21.4280     2.2240   -23.0960 hc         1 HWR       0.067200
     57 H16         20.7590     4.2480   -24.2730 h1         1 HWR       0.033700
     58 H17         19.0130    -0.4640   -23.3090 ha         1 HWR       0.119000
     59 H18         18.7930    -2.1770   -21.5210 ha         1 HWR       0.122500
     60 H19         18.9540     0.9240   -18.5210 ha         1 HWR       0.122500
     61 H20         19.1770     2.6390   -20.2950 ha         1 HWR       0.119000
     62 H21         14.9850    -0.6870   -29.9630 h1         1 HWR       0.028200
     63 H22         14.3600    -0.9210   -28.3250 h1         1 HWR       0.028200
     64 H23         11.9980     9.5080   -28.2130 h1         1 HWR       0.041700
     65 H24         13.7980     4.0320   -29.2470 h1         1 HWR       0.094700
     66 H25         12.5510     0.4080   -29.1780 h1         1 HWR       0.050700
     67 H26         13.3540     0.7220   -31.2970 ho         1 HWR       0.515000
     68 H27         11.5930     2.5550   -30.4110 ho         1 HWR       0.523000
     69 H28          9.7250     7.9840   -27.6340 ho         1 HWR       0.524000
     70 H29         11.9050     9.2320   -25.6250 ho         1 HWR       0.449000
     71 H30         14.2240     9.9170   -28.0750 ho         1 HWR       0.498000
     72 H31         22.5430     2.8980   -25.0770 ho         1 HWR       0.451000
     73 H32         18.7430    -1.2410   -18.0650 ho         1 HWR       0.466000
     74 H33         21.1530     4.1700   -26.8700 ho         1 HWR       0.491000
     75 H34         16.5760    -1.4680   -28.4200 ho         1 HWR       0.502000
@<TRIPOS>BOND
     1     1     2 1   
     2     1    28 1   
     3     1    34 1   
     4     1    42 1   
     5     2     4 1   
     6     2    31 1   
     7     2    43 1   
     8     3    26 1   
     9     3    27 1   
    10     3    30 1   
    11     3    44 1   
    12     4    25 1   
    13     4    32 1   
    14     4    45 1   
    15     5     6 1   
    16     5    25 1   
    17     5    28 1   
    18     5    46 1   
    19     6    47 1   
    20     6    48 1   
    21     6    49 1   
    22     7    24 1   
    23     7    27 1   
    24     7    35 1   
    25     7    50 1   
    26     8    26 1   
    27     8    35 1   
    28     8    36 1   
    29     8    51 1   
    30     9    10 ar  
    31     9    14 ar  
    32     9    36 1   
    33    10    11 ar  
    34    10    52 1   
    35    11    12 ar  
    36    11    40 1   
    37    12    13 ar  
    38    12    17 1   
    39    13    14 ar  
    40    13    37 1   
    41    14    53 1   
    42    15    16 1   
    43    15    18 1   
    44    15    37 1   
    45    15    54 1   
    46    16    17 1   
    47    16    55 1   
    48    16    56 1   
    49    17    38 1   
    50    17    57 1   
    51    18    19 ar  
    52    18    23 ar  
    53    19    20 ar  
    54    19    58 1   
    55    20    21 ar  
    56    20    59 1   
    57    21    22 ar  
    58    21    39 1   
    59    22    23 ar  
    60    22    60 1   
    61    23    61 1   
    62    24    41 1   
    63    24    62 1   
    64    24    63 1   
    65    25    33 1   
    66    25    64 1   
    67    26    34 1   
    68    26    65 1   
    69    27    29 1   
    70    27    66 1   
    71    29    67 1   
    72    30    68 1   
    73    31    69 1   
    74    32    70 1   
    75    33    71 1   
    76    38    72 1   
    77    39    73 1   
    78    40    74 1   
    79    41    75 1   
@<TRIPOS>SUBSTRUCTURE
     1 HWR         1 TEMP              0 ****  ****    0 ROOT
