@<TRIPOS>MOLECULE
HWR
   75    79     1     0     0
SMALL
bcc


@<TRIPOS>ATOM
      1 C6          12.8850     5.6840   -28.5580 c6         1 HWR       0.352900
      2 C5          12.5020     6.8290   -27.6060 c6         1 HWR       0.128100
      3 C8          12.0020     2.4660   -28.3050 c6         1 HWR       0.106100
      4 C4          13.7570     7.5970   -27.2200 c6         1 HWR       0.072100
      5 C2          14.2060     7.2980   -29.6760 c6         1 HWR       0.174100
      6 C1          15.2910     7.3530   -30.7300 c3         1 HWR      -0.078100
      7 C10         13.6750     0.7830   -29.1860 c6         1 HWR       0.158100
      8 C11         14.4590     2.6270   -27.8250 c6         1 HWR       0.353900
      9 C12         16.4130     3.6860   -26.9940 ca         1 HWR       0.212100
     10 C13         16.8990     4.9820   -26.8900 ca         1 HWR      -0.228000
     11 C14         17.7570     5.3060   -25.8460 ca         1 HWR       0.222100
     12 C15         18.1310     4.3510   -24.8890 ca         1 HWR      -0.297300
     13 C16         17.6230     3.0590   -25.0270 ca         1 HWR       0.209100
     14 C17         16.7750     2.7120   -26.0760 ca         1 HWR      -0.267000
     15 C18         18.5050     2.4150   -22.9100 c6         1 HWR       0.214400
     16 C19         19.6030     3.4440   -23.1140 c6         1 HWR      -0.140400
     17 C20         19.0080     4.7050   -23.7160 c6         1 HWR       0.213400
     18 C21         18.9960     1.1490   -22.2720 ca         1 HWR      -0.131300
     19 C22         19.9090     0.3200   -22.9230 ca         1 HWR      -0.064500
     20 C23         20.3810    -0.8320   -22.3230 ca         1 HWR      -0.199500
     21 C24         19.9490    -1.1830   -21.0430 ca         1 HWR       0.150100
     22 C25         19.0370    -0.3640   -20.3840 ca         1 HWR      -0.199500
     23 C26         18.5670     0.7850   -21.0030 ca         1 HWR      -0.064500
     24 C27         14.0370    -0.6750   -29.3700 c3         1 HWR       0.146400
     25 C3          14.4450     8.2030   -28.4580 c6         1 HWR       0.092100
     26 C7          13.2560     3.3260   -28.4480 c6         1 HWR       0.119100
     27 C9          12.3420     0.9570   -28.4620 c6         1 HWR       0.071100
     28 O1          14.0730     5.9470   -29.2560 os         1 HWR      -0.430600
     29 O10         11.3100     0.3010   -29.1610 oh         1 HWR      -0.594800
     30 O11         11.0810     2.8930   -29.2730 oh         1 HWR      -0.588800
     31 O12         11.5550     7.6430   -28.2610 oh         1 HWR      -0.602800
     32 O13         13.3760     8.5690   -26.2700 oh         1 HWR      -0.612800
     33 O14         15.8320     8.3590   -28.2450 oh         1 HWR      -0.582800
     34 O2          13.0900     4.5540   -27.7770 os         1 HWR      -0.403600
     35 O3          14.6940     1.3700   -28.3850 os         1 HWR      -0.414600
     36 O4          15.5930     3.4210   -28.0420 os         1 HWR      -0.309900
     37 O5          17.9180     2.0650   -24.1640 os         1 HWR      -0.319900
     38 O6          20.0180     5.6020   -24.1620 oh         1 HWR      -0.604800
     39 O7          20.4450    -2.3120   -20.5040 oh         1 HWR      -0.492100
     40 O8          18.1910     6.5750   -25.7730 oh         1 HWR      -0.511100
     41 O9          15.2690    -0.7570   -30.0450 oh         1 HWR      -0.576800
     42 H1          12.0660     5.5230   -29.2780 h2         1 HWR       0.067700
     43 H2          12.0660     6.3850   -26.7010 h1         1 HWR       0.068700
     44 H3          11.6010     2.6180   -27.2920 h1         1 HWR       0.051700
     45 H4          14.4570     6.8750   -26.7750 h1         1 HWR       0.078700
     46 H5          13.2690     7.6260   -30.1430 h1         1 HWR       0.051700
     47 H6          15.4610     8.3800   -31.0500 hc         1 HWR       0.048700
     48 H7          16.2360     6.9500   -30.3680 hc         1 HWR       0.048700
     49 H8          14.9880     6.7790   -31.6060 hc         1 HWR       0.048700
     50 H9          13.6320     1.2620   -30.1750 h1         1 HWR       0.076700
     51 H10         14.2930     2.5200   -26.7430 h2         1 HWR       0.055700
     52 H11         16.6040     5.7420   -27.6030 ha         1 HWR       0.179000
     53 H12         16.4240     1.6910   -26.1560 ha         1 HWR       0.162000
     54 H13         17.7240     2.8520   -22.2730 h1         1 HWR       0.046700
     55 H14         20.3730     3.0430   -23.7800 hc         1 HWR       0.067200
     56 H15         20.0740     3.6660   -22.1550 hc         1 HWR       0.067200
     57 H16         18.3950     5.2020   -22.9500 h1         1 HWR       0.033700
     58 H17         20.2620     0.5720   -23.9160 ha         1 HWR       0.137000
     59 H18         21.0880    -1.4680   -22.8420 ha         1 HWR       0.140500
     60 H19         18.6860    -0.6230   -19.3910 ha         1 HWR       0.140500
     61 H20         17.8520     1.4080   -20.4790 ha         1 HWR       0.137000
     62 H21         13.2330    -1.1550   -29.9370 h1         1 HWR       0.028200
     63 H22         14.0750    -1.1610   -28.3840 h1         1 HWR       0.028200
     64 H23         13.9830     9.1750   -28.6730 h1         1 HWR       0.041700
     65 H24         13.4530     3.4780   -29.5170 h1         1 HWR       0.094700
     66 H25         12.4640     0.5280   -27.4610 h1         1 HWR       0.050700
     67 H26         10.7570    -0.1770   -28.5360 ho         1 HWR       0.416000
     68 H27         10.5270     2.1310   -29.4910 ho         1 HWR       0.424000
     69 H28         11.3380     8.3790   -27.6800 ho         1 HWR       0.425000
     70 H29         14.1630     8.9510   -25.8700 ho         1 HWR       0.410000
     71 H30         15.9790     9.1060   -27.6580 ho         1 HWR       0.399000
     72 H31         20.4220     6.0170   -23.3910 ho         1 HWR       0.412000
     73 H32         20.0760    -2.4640   -19.6270 ho         1 HWR       0.427000
     74 H33         18.9560     6.6000   -25.1650 ho         1 HWR       0.452000
     75 H34         15.4520    -1.6850   -30.2180 ho         1 HWR       0.403000
@<TRIPOS>BOND
     1     1     2 1   
     2     1    28 1   
     3     1    34 1   
     4     1    42 1   
     5     2     4 1   
     6     2    31 1   
     7     2    43 1   
     8     3    26 1   
     9     3    27 1   
    10     3    30 1   
    11     3    44 1   
    12     4    25 1   
    13     4    32 1   
    14     4    45 1   
    15     5     6 1   
    16     5    25 1   
    17     5    28 1   
    18     5    46 1   
    19     6    47 1   
    20     6    48 1   
    21     6    49 1   
    22     7    24 1   
    23     7    27 1   
    24     7    35 1   
    25     7    50 1   
    26     8    26 1   
    27     8    35 1   
    28     8    36 1   
    29     8    51 1   
    30     9    10 ar  
    31     9    14 ar  
    32     9    36 1   
    33    10    11 ar  
    34    10    52 1   
    35    11    12 ar  
    36    11    40 1   
    37    12    13 ar  
    38    12    17 1   
    39    13    14 ar  
    40    13    37 1   
    41    14    53 1   
    42    15    16 1   
    43    15    18 1   
    44    15    37 1   
    45    15    54 1   
    46    16    17 1   
    47    16    55 1   
    48    16    56 1   
    49    17    38 1   
    50    17    57 1   
    51    18    19 ar  
    52    18    23 ar  
    53    19    20 ar  
    54    19    58 1   
    55    20    21 ar  
    56    20    59 1   
    57    21    22 ar  
    58    21    39 1   
    59    22    23 ar  
    60    22    60 1   
    61    23    61 1   
    62    24    41 1   
    63    24    62 1   
    64    24    63 1   
    65    25    33 1   
    66    25    64 1   
    67    26    34 1   
    68    26    65 1   
    69    27    29 1   
    70    27    66 1   
    71    29    67 1   
    72    30    68 1   
    73    31    69 1   
    74    32    70 1   
    75    33    71 1   
    76    38    72 1   
    77    39    73 1   
    78    40    74 1   
    79    41    75 1   
@<TRIPOS>SUBSTRUCTURE
     1 HWR         1 TEMP              0 ****  ****    0 ROOT
