@<TRIPOS>MOLECULE
HWT
   47    48     1     0     0
SMALL
No Charge or Current Charge


@<TRIPOS>ATOM
      1 C1           1.2630    45.1970    58.1370 c3         1 HWT       0.152600
      2 C2           3.4720    44.9810    59.2620 c3         1 HWT       0.172800
      3 C3           3.5170    46.4050    59.8560 c3         1 HWT      -0.108400
      4 C4           4.4590    46.5020    61.0710 c3         1 HWT       0.234800
      5 C5           3.6090    48.1570    62.7860 c3         1 HWT       0.221100
      6 C6           5.3980    48.8660    61.1390 ca         1 HWT       0.424900
      7 C7           6.9770    49.4700    59.5700 ca         1 HWT       0.462900
      8 N1           4.5280    47.8660    61.6560 nh         1 HWT      -0.768300
      9 N2           6.1510    48.5310    60.0680 nb         1 HWT      -0.329000
     10 N3           7.7520    49.0950    58.4520 nh         1 HWT      -0.785300
     11 N4          12.5440    49.2470    59.5210 n1         1 HWT      -0.456000
     12 C8           7.1890    48.1830    57.4270 c3         1 HWT       0.222100
     13 C11         11.3930    49.1000    59.6290 c1         1 HWT       0.299900
     14 C10          9.9440    48.9290    59.7320 c3         1 HWT      -0.054300
     15 C9           9.2220    49.3060    58.4220 c3         1 HWT       0.232800
     16 C12          7.0250    50.7430    60.1570 ca         1 HWT      -0.376000
     17 C15          6.2210    50.9880    61.2440 ca         1 HWT       0.202800
     18 C14          6.3400    52.3290    61.7490 cc         1 HWT      -0.306800
     19 C13          7.2360    53.0800    61.0040 cd         1 HWT      -0.137400
     20 S            7.9670    52.1660    59.6520 ss         1 HWT       0.066400
     21 N5           5.3970    50.0670    61.7600 nb         1 HWT      -0.253000
     22 N            2.7000    44.8560    58.0000 n3         1 HWT      -0.715600
     23 C            2.8920    43.5350    57.3610 c3         1 HWT       0.152600
     24 H1           1.1290    46.2380    58.4550 h1         1 HWT       0.029700
     25 H2           0.7440    45.0780    57.1760 h1         1 HWT       0.029700
     26 H3           0.7740    44.5430    58.8720 h1         1 HWT       0.029700
     27 H4           3.0630    44.2970    60.0190 h1         1 HWT       0.026700
     28 H5           4.5090    44.6690    59.0770 h1         1 HWT       0.026700
     29 H6           3.8510    47.1050    59.0810 hc         1 HWT       0.056700
     30 H7           2.5130    46.7140    60.1670 hc         1 HWT       0.056700
     31 H8           4.1180    45.7880    61.8340 h1         1 HWT       0.055200
     32 H9           5.4630    46.1630    60.7790 h1         1 HWT       0.055200
     33 H10          4.1790    48.3780    63.6990 h1         1 HWT       0.042033
     34 H11          2.9690    49.0180    62.5510 h1         1 HWT       0.042033
     35 H12          2.9520    47.3030    62.9960 h1         1 HWT       0.042033
     36 H13          6.1130    48.3620    57.2990 h1         1 HWT       0.044700
     37 H14          7.6690    48.3490    56.4540 h1         1 HWT       0.044700
     38 H15          7.3380    47.1350    57.7190 h1         1 HWT       0.044700
     39 H16          9.7280    47.8840    59.9820 hc         1 HWT       0.082200
     40 H17          9.5800    49.5470    60.5590 hc         1 HWT       0.082200
     41 H18          9.4440    50.3520    58.1720 h1         1 HWT       0.066200
     42 H19          9.6610    48.7020    57.6150 h1         1 HWT       0.066200
     43 H20          5.7950    52.7140    62.6070 ha         1 HWT       0.217000
     44 H21          7.5190    54.1180    61.1540 h4         1 HWT       0.218000
     45 H23          3.9590    43.3380    57.1880 h1         1 HWT       0.029700
     46 H24          2.4920    42.7310    57.9950 h1         1 HWT       0.029700
     47 H25          2.3810    43.4940    56.3900 h1         1 HWT       0.029700
@<TRIPOS>BOND
     1     1    22 1   
     2     1    24 1   
     3     1    25 1   
     4     1    26 1   
     5     2     3 1   
     6     2    22 1   
     7     2    27 1   
     8     2    28 1   
     9     3     4 1   
    10     3    29 1   
    11     3    30 1   
    12     4     8 1   
    13     4    31 1   
    14     4    32 1   
    15     5     8 1   
    16     5    33 1   
    17     5    34 1   
    18     5    35 1   
    19     6     8 1   
    20     6     9 ar  
    21     6    21 ar  
    22     7     9 ar  
    23     7    10 1   
    24     7    16 ar  
    25    10    12 1   
    26    10    15 1   
    27    11    13 3   
    28    12    36 1   
    29    12    37 1   
    30    12    38 1   
    31    13    14 1   
    32    14    15 1   
    33    14    39 1   
    34    14    40 1   
    35    15    41 1   
    36    15    42 1   
    37    16    17 ar  
    38    16    20 1   
    39    17    18 1   
    40    17    21 ar  
    41    18    19 2   
    42    18    43 1   
    43    19    20 1   
    44    19    44 1   
    45    22    23 1   
    46    23    45 1   
    47    23    46 1   
    48    23    47 1   
@<TRIPOS>SUBSTRUCTURE
     1 HWT         1 TEMP              0 ****  ****    0 ROOT
