@<TRIPOS>MOLECULE
HWT
   47    48     1     0     0
SMALL
bcc


@<TRIPOS>ATOM
      1 C1           1.3810    45.6220    57.8940 c3         1 HWT       0.152600
      2 C2           3.3370    45.1430    59.2190 c3         1 HWT       0.172800
      3 C3           3.4870    46.5160    59.8580 c3         1 HWT      -0.108400
      4 C4           4.3360    46.4420    61.1240 c3         1 HWT       0.234800
      5 C5           3.4500    48.1160    62.7330 c3         1 HWT       0.221100
      6 C6           5.3350    48.6530    61.3230 ca         1 HWT       0.950900
      7 C7           7.0310    49.1170    59.8290 ca         1 HWT       0.791200
      8 N1           4.4820    47.7130    61.8040 nh         1 HWT      -0.768300
      9 N2           6.1770    48.2610    60.3560 nb         1 HWT      -0.855000
     10 N3           7.8210    48.6210    58.8360 nh         1 HWT      -0.785300
     11 N4          12.0860    50.7090    58.0270 n1         1 HWT      -0.366800
     12 C8           7.7220    47.2060    58.5320 c3         1 HWT       0.222100
     13 C11         11.2530    50.0970    58.5310 c1         1 HWT       0.210700
     14 C10         10.1750    49.3340    59.1360 c3         1 HWT      -0.054300
     15 C9           8.9100    49.3560    58.2570 c3         1 HWT       0.232800
     16 C12          7.0520    50.4460    60.3190 ca         1 HWT      -0.379700
     17 C15          6.1460    50.7410    61.3470 ca         1 HWT       0.531100
     18 C14          6.2570    52.1010    61.7870 cc         1 HWT      -0.256800
     19 C13          7.2040    52.7850    61.1120 cd         1 HWT      -0.087400
     20 S            8.0030    51.8460    59.9130 ss         1 HWT      -0.060500
     21 N5           5.2780    49.8660    61.8520 nb         1 HWT      -0.779000
     22 N            2.7560    45.1790    57.8920 n3         1 HWT      -0.715600
     23 C            2.8870    43.9030    57.2300 c3         1 HWT       0.152600
     24 H1           1.2970    46.6420    58.2700 h1         1 HWT       0.029700
     25 H2           0.9950    45.6270    56.8740 h1         1 HWT       0.029700
     26 H3           0.7160    44.9850    58.4980 h1         1 HWT       0.029700
     27 H4           2.7650    44.4810    59.8960 h1         1 HWT       0.026700
     28 H5           4.3320    44.6950    59.1280 h1         1 HWT       0.026700
     29 H6           3.9640    47.1910    59.1440 hc         1 HWT       0.056700
     30 H7           2.5120    46.9400    60.1090 hc         1 HWT       0.056700
     31 H8           3.8880    45.7430    61.8330 h1         1 HWT       0.055200
     32 H9           5.3240    46.0500    60.8830 h1         1 HWT       0.055200
     33 H10          3.8690    48.6880    63.5570 h1         1 HWT       0.042033
     34 H11          2.6730    48.7280    62.2660 h1         1 HWT       0.042033
     35 H12          2.9790    47.2240    63.1410 h1         1 HWT       0.042033
     36 H13          6.7000    46.9280    58.2850 h1         1 HWT       0.044700
     37 H14          8.3520    46.9900    57.6720 h1         1 HWT       0.044700
     38 H15          8.0460    46.5770    59.3640 h1         1 HWT       0.044700
     39 H16         10.5140    48.3060    59.2850 hc         1 HWT       0.082200
     40 H17          9.9660    49.7500    60.1230 hc         1 HWT       0.082200
     41 H18          8.6170    50.3830    58.0370 h1         1 HWT       0.066200
     42 H19          9.1420    48.9160    57.2880 h1         1 HWT       0.066200
     43 H20          5.6440    52.5170    62.5720 ha         1 HWT       0.167000
     44 H21          7.4870    53.8170    61.2440 h4         1 HWT       0.168000
     45 H23          3.9380    43.6150    57.1760 h1         1 HWT       0.029700
     46 H24          2.3430    43.0850    57.7310 h1         1 HWT       0.029700
     47 H25          2.5110    43.9710    56.2080 h1         1 HWT       0.029700
@<TRIPOS>BOND
     1     1    22 1   
     2     1    24 1   
     3     1    25 1   
     4     1    26 1   
     5     2     3 1   
     6     2    22 1   
     7     2    27 1   
     8     2    28 1   
     9     3     4 1   
    10     3    29 1   
    11     3    30 1   
    12     4     8 1   
    13     4    31 1   
    14     4    32 1   
    15     5     8 1   
    16     5    33 1   
    17     5    34 1   
    18     5    35 1   
    19     6     8 1   
    20     6     9 ar  
    21     6    21 ar  
    22     7     9 ar  
    23     7    10 1   
    24     7    16 ar  
    25    10    12 1   
    26    10    15 1   
    27    11    13 3   
    28    12    36 1   
    29    12    37 1   
    30    12    38 1   
    31    13    14 1   
    32    14    15 1   
    33    14    39 1   
    34    14    40 1   
    35    15    41 1   
    36    15    42 1   
    37    16    17 ar  
    38    16    20 1   
    39    17    18 1   
    40    17    21 ar  
    41    18    19 2   
    42    18    43 1   
    43    19    20 1   
    44    19    44 1   
    45    22    23 1   
    46    23    45 1   
    47    23    46 1   
    48    23    47 1   
@<TRIPOS>SUBSTRUCTURE
     1 HWT         1 TEMP              0 ****  ****    0 ROOT
