@<TRIPOS>MOLECULE
HWW
   59    60     1     0     0
SMALL
No Charge or Current Charge


@<TRIPOS>ATOM
      1 C4           4.3560    46.3620    61.6230 c3         1 HWW       0.244800
      2 C3           3.6790    46.3100    60.2400 c3         1 HWW      -0.101400
      3 N2           6.3360    48.2360    60.9160 nb         1 HWW      -0.345000
      4 C1           3.4150    45.6150    57.2570 c3         1 HWW       0.146600
      5 N4           7.2450    44.5720    56.9560 n1         1 HWW      -0.467000
      6 C11          7.5600    45.2920    57.8150 c1         1 HWW       0.303900
      7 C10          7.9930    46.1910    58.8860 c3         1 HWW      -0.047300
      8 C9           7.7870    47.6740    58.5180 c3         1 HWW       0.244800
      9 C8           9.6530    48.9740    59.6250 c3         1 HWW       0.210100
     10 C7           7.3070    49.0920    60.5540 ca         1 HWW       0.468900
     11 C12          7.3530    50.3740    61.1270 ca         1 HWW      -0.375000
     12 C15          6.3980    50.7040    62.0580 ca         1 HWW       0.207800
     13 C14          6.5230    52.0450    62.5610 cc         1 HWW      -0.314800
     14 C13          7.5820    52.7300    61.9760 cd         1 HWW      -0.009600
     15 C16          8.0350    54.1640    62.2380 c3         1 HWW       0.012200
     16 C19          7.1430    54.8530    63.3060 c3         1 HWW      -0.084433
     17 C18          9.4990    54.1570    62.7510 c3         1 HWW      -0.084433
     18 C17          7.9500    54.9820    60.9240 c3         1 HWW      -0.084433
     19 S            8.4600    51.7210    60.7770 ss         1 HWW       0.053400
     20 N5           5.4280    49.8610    62.4350 nb         1 HWW      -0.256000
     21 C6           5.4420    48.6500    61.8370 ca         1 HWW       0.428900
     22 N1           4.4200    47.7310    62.1990 nh         1 HWW      -0.782300
     23 C5           3.3380    48.1150    63.1410 c3         1 HWW       0.232100
     24 C2           3.7180    44.8970    59.6210 c3         1 HWW       0.165800
     25 N            2.9440    44.7460    58.3620 n3         1 HWW      -0.707600
     26 C            2.8440    43.3310    57.9420 c3         1 HWW       0.146600
     27 H1           3.8090    45.6950    62.3050 h1         1 HWW       0.049200
     28 H2           5.3670    45.9390    61.5460 h1         1 HWW       0.049200
     29 H3           4.1830    47.0170    59.5720 hc         1 HWW       0.057200
     30 H4           2.6380    46.6380    60.3370 hc         1 HWW       0.057200
     31 H5           3.3300    46.6770    57.5200 h1         1 HWW       0.031200
     32 H6           4.4630    45.4020    57.0090 h1         1 HWW       0.031200
     33 H7           2.8110    45.4540    56.3540 h1         1 HWW       0.031200
     34 H8           9.0510    46.0040    59.0950 hc         1 HWW       0.081200
     35 H9           7.4320    45.9480    59.7940 hc         1 HWW       0.081200
     36 H10          8.3390    47.8890    57.5910 h1         1 HWW       0.066700
     37 H11          6.7260    47.8390    58.2810 h1         1 HWW       0.066700
     38 H12          9.9650    49.1880    60.6560 h1         1 HWW       0.047033
     39 H13         10.2720    48.1420    59.2620 h1         1 HWW       0.047033
     40 H14          9.8580    49.8540    59.0020 h1         1 HWW       0.047033
     41 H15          5.8600    52.4680    63.3070 ha         1 HWW       0.217000
     42 H16          7.1840    54.3140    64.2610 hc         1 HWW       0.039367
     43 H17          7.4760    55.8820    63.4900 hc         1 HWW       0.039367
     44 H18          6.0980    54.8940    62.9780 hc         1 HWW       0.039367
     45 H19          9.5880    53.5520    63.6620 hc         1 HWW       0.039367
     46 H20         10.1830    53.7420    62.0010 hc         1 HWW       0.039367
     47 H21          9.8380    55.1730    62.9840 hc         1 HWW       0.039367
     48 H22          8.2350    56.0270    61.0930 hc         1 HWW       0.039367
     49 H23          8.6170    54.5750    60.1550 hc         1 HWW       0.039367
     50 H24          6.9280    54.9690    60.5250 hc         1 HWW       0.039367
     51 H25          2.8210    49.0170    62.7880 h1         1 HWW       0.041367
     52 H26          2.5880    47.3180    63.2330 h1         1 HWW       0.041367
     53 H27          3.7490    48.3090    64.1410 h1         1 HWW       0.041367
     54 H28          3.3190    44.1980    60.3690 h1         1 HWW       0.027700
     55 H29          4.7670    44.6180    59.4500 h1         1 HWW       0.027700
     56 H31          2.4130    42.7160    58.7430 h1         1 HWW       0.031200
     57 H32          2.1990    43.2320    57.0580 h1         1 HWW       0.031200
     58 H33          3.8340    42.9260    57.6910 h1         1 HWW       0.031200
     59 N3           8.2160    48.6240    59.5760 nh         1 HWW      -0.793300
@<TRIPOS>BOND
     1     1     2 1   
     2     1    22 1   
     3     1    27 1   
     4     1    28 1   
     5     2    24 1   
     6     2    29 1   
     7     2    30 1   
     8     3    10 ar  
     9     3    21 ar  
    10     4    25 1   
    11     4    31 1   
    12     4    32 1   
    13     4    33 1   
    14     5     6 3   
    15     6     7 1   
    16     7     8 1   
    17     7    34 1   
    18     7    35 1   
    19     8    36 1   
    20     8    37 1   
    21     8    59 1   
    22     9    38 1   
    23     9    39 1   
    24     9    40 1   
    25     9    59 1   
    26    10    11 ar  
    27    10    59 1   
    28    11    12 ar  
    29    11    19 1   
    30    12    13 1   
    31    12    20 ar  
    32    13    14 2   
    33    13    41 1   
    34    14    15 1   
    35    14    19 1   
    36    15    16 1   
    37    15    17 1   
    38    15    18 1   
    39    16    42 1   
    40    16    43 1   
    41    16    44 1   
    42    17    45 1   
    43    17    46 1   
    44    17    47 1   
    45    18    48 1   
    46    18    49 1   
    47    18    50 1   
    48    20    21 ar  
    49    21    22 1   
    50    22    23 1   
    51    23    51 1   
    52    23    52 1   
    53    23    53 1   
    54    24    25 1   
    55    24    54 1   
    56    24    55 1   
    57    25    26 1   
    58    26    56 1   
    59    26    57 1   
    60    26    58 1   
@<TRIPOS>SUBSTRUCTURE
     1 HWW         1 TEMP              0 ****  ****    0 ROOT
