@<TRIPOS>MOLECULE
HWW
   59    60     1     0     0
SMALL
abcg2


@<TRIPOS>ATOM
      1 C4           4.2940    46.4760    61.5250 c3         1 HWW       0.244800
      2 C3           3.5980    46.4190    60.1680 c3         1 HWW      -0.101400
      3 N2           6.1390    48.2940    60.7780 nb         1 HWW      -0.345000
      4 C1           3.6180    45.7210    57.2560 c3         1 HWW       0.146600
      5 N4           7.5260    44.0130    58.1230 n1         1 HWW      -0.467000
      6 C11          7.8000    44.9720    58.6960 c1         1 HWW       0.303900
      7 C10          8.1250    46.2000    59.4010 c3         1 HWW      -0.047300
      8 C9           7.5420    47.4260    58.6840 c3         1 HWW       0.244800
      9 C8           9.1250    49.3060    58.9800 c3         1 HWW       0.210100
     10 C7           7.1080    49.1010    60.3740 ca         1 HWW       0.468900
     11 C12          7.2500    50.3600    61.0040 ca         1 HWW      -0.375000
     12 C15          6.3240    50.6670    62.0070 ca         1 HWW       0.207800
     13 C14          6.5350    51.9740    62.5520 cc         1 HWW      -0.314800
     14 C13          7.5690    52.6360    61.9780 cd         1 HWW      -0.009600
     15 C16          8.1020    54.0130    62.2900 c3         1 HWW       0.012200
     16 C19          7.2700    54.6600    63.3960 c3         1 HWW      -0.084433
     17 C18          9.5600    53.9010    62.7580 c3         1 HWW      -0.084433
     18 C17          8.0330    54.8940    61.0360 c3         1 HWW      -0.084433
     19 S            8.3350    51.6920    60.7380 ss         1 HWW       0.053400
     20 N5           5.3470    49.8420    62.3980 nb         1 HWW      -0.256000
     21 C6           5.3050    48.6810    61.7540 ca         1 HWW       0.428900
     22 N1           4.3410    47.7990    62.1110 nh         1 HWW      -0.782300
     23 C5           3.3400    48.1910    63.0780 c3         1 HWW       0.232100
     24 C2           3.7530    45.0330    59.5600 c3         1 HWW       0.165800
     25 N            3.0810    44.8570    58.2860 n3         1 HWW      -0.707600
     26 C            3.1560    43.4710    57.8730 c3         1 HWW       0.146600
     27 H1           3.7890    45.8160    62.2330 h1         1 HWW       0.049200
     28 H2           5.3120    46.0950    61.4200 h1         1 HWW       0.049200
     29 H3           4.0470    47.1780    59.5250 hc         1 HWW       0.057200
     30 H4           2.5380    46.6650    60.2750 hc         1 HWW       0.057200
     31 H5           3.4210    46.7700    57.4770 h1         1 HWW       0.031200
     32 H6           4.7060    45.6040    57.1200 h1         1 HWW       0.031200
     33 H7           3.1400    45.4960    56.3020 h1         1 HWW       0.031200
     34 H8           9.2120    46.2740    59.4760 hc         1 HWW       0.081200
     35 H9           7.7260    46.1330    60.4150 hc         1 HWW       0.081200
     36 H10          7.9300    47.4780    57.6670 h1         1 HWW       0.066700
     37 H11          6.4600    47.3310    58.6150 h1         1 HWW       0.066700
     38 H12          9.7620    49.4990    59.8420 h1         1 HWW       0.047033
     39 H13          9.6790    48.6430    58.3200 h1         1 HWW       0.047033
     40 H14          8.9590    50.2380    58.4360 h1         1 HWW       0.047033
     41 H15          5.9200    52.3780    63.3440 ha         1 HWW       0.217000
     42 H16          7.2990    54.0800    64.3200 hc         1 HWW       0.039367
     43 H17          7.6650    55.6530    63.6150 hc         1 HWW       0.039367
     44 H18          6.2260    54.7770    63.0990 hc         1 HWW       0.039367
     45 H19          9.6480    53.2380    63.6200 hc         1 HWW       0.039367
     46 H20         10.2120    53.5160    61.9710 hc         1 HWW       0.039367
     47 H21          9.9360    54.8840    63.0450 hc         1 HWW       0.039367
     48 H22          8.4040    55.8950    61.2640 hc         1 HWW       0.039367
     49 H23          8.6400    54.4960    60.2200 hc         1 HWW       0.039367
     50 H24          7.0070    54.9880    60.6760 hc         1 HWW       0.039367
     51 H25          2.8560    49.1280    62.8010 h1         1 HWW       0.041367
     52 H26          2.5750    47.4200    63.1230 h1         1 HWW       0.041367
     53 H27          3.7560    48.3150    64.0800 h1         1 HWW       0.041367
     54 H28          3.3440    44.2960    60.2580 h1         1 HWW       0.027700
     55 H29          4.8320    44.8030    59.4710 h1         1 HWW       0.027700
     56 H31          2.7020    42.8280    58.6290 h1         1 HWW       0.031200
     57 H32          2.6100    43.3250    56.9400 h1         1 HWW       0.031200
     58 H33          4.1900    43.1220    57.7150 h1         1 HWW       0.031200
     59 N3           7.8850    48.6570    59.3570 nh         1 HWW      -0.793300
@<TRIPOS>BOND
     1     1     2 1   
     2     1    22 1   
     3     1    27 1   
     4     1    28 1   
     5     2    24 1   
     6     2    29 1   
     7     2    30 1   
     8     3    10 ar  
     9     3    21 ar  
    10     4    25 1   
    11     4    31 1   
    12     4    32 1   
    13     4    33 1   
    14     5     6 3   
    15     6     7 1   
    16     7     8 1   
    17     7    34 1   
    18     7    35 1   
    19     8    36 1   
    20     8    37 1   
    21     8    59 1   
    22     9    38 1   
    23     9    39 1   
    24     9    40 1   
    25     9    59 1   
    26    10    11 ar  
    27    10    59 1   
    28    11    12 ar  
    29    11    19 1   
    30    12    13 1   
    31    12    20 ar  
    32    13    14 2   
    33    13    41 1   
    34    14    15 1   
    35    14    19 1   
    36    15    16 1   
    37    15    17 1   
    38    15    18 1   
    39    16    42 1   
    40    16    43 1   
    41    16    44 1   
    42    17    45 1   
    43    17    46 1   
    44    17    47 1   
    45    18    48 1   
    46    18    49 1   
    47    18    50 1   
    48    20    21 ar  
    49    21    22 1   
    50    22    23 1   
    51    23    51 1   
    52    23    52 1   
    53    23    53 1   
    54    24    25 1   
    55    24    54 1   
    56    24    55 1   
    57    25    26 1   
    58    26    56 1   
    59    26    57 1   
    60    26    58 1   
@<TRIPOS>SUBSTRUCTURE
     1 HWW         1 TEMP              0 ****  ****    0 ROOT
