@<TRIPOS>MOLECULE
HWX
   40    39     1     0     0
SMALL
abcg2


@<TRIPOS>ATOM
      1 C4          46.9490   149.2900    -1.3460 c          1 HWX       0.588100
      2 C5          47.3720   149.7040    -3.7200 c3         1 HWX       0.036700
      3 C11         46.2200   150.5980    -4.1830 c3         1 HWX      -0.112100
      4 C7          43.3870   146.6000     2.6030 c3         1 HWX       0.014800
      5 C8          43.5410   146.8790     4.1110 c          1 HWX       0.722000
      6 C12         47.8030   148.8040    -4.8700 c          1 HWX       0.593100
      7 C13         47.8630   148.3350     3.1270 c3         1 HWX      -0.186100
      8 N1          46.8120   148.6040     0.9810 ns         1 HWX      -0.492900
      9 N2          46.9990   148.8540    -2.6150 ns         1 HWX      -0.505900
     10 C3          47.5900   147.8050     1.7420 c          1 HWX       0.617100
     11 N3          43.9620   147.6300     1.7670 n7         1 HWX      -0.858400
     12 C1          44.8430   148.2450    -0.4750 c3         1 HWX      -0.089400
     13 O1          47.9990   146.7160     1.3680 o          1 HWX      -0.628100
     14 C2          46.3730   148.2810    -0.3500 c3         1 HWX       0.035700
     15 O3          47.3020   150.4060    -1.0030 o          1 HWX      -0.613100
     16 N4          48.7970   149.3230    -5.6080 ns         1 HWX      -0.384400
     17 O8          47.2750   147.7290    -5.0880 o          1 HWX      -0.572100
     18 O9          49.1050   148.7720    -6.8150 oh         1 HWX      -0.429100
     19 O2          42.8060   146.2090     4.8610 o          1 HWX      -0.739000
     20 O4          44.4040   147.7120     4.4550 o          1 HWX      -0.739000
     21 H1          48.2090   150.3330    -3.4070 h1         1 HWX       0.077700
     22 H2          43.1890   146.9740    -0.0320 h1         1 HWX       0.015700
     23 H3          44.7400   146.2520     0.3370 h1         1 HWX       0.015700
     24 H4          45.8950   151.2410    -3.3670 hc         1 HWX       0.051033
     25 H5          46.5310   151.2360    -5.0100 hc         1 HWX       0.051033
     26 H6          45.3710   149.9970    -4.5100 hc         1 HWX       0.051033
     27 H7          42.3250   146.4800     2.3650 h1         1 HWX       0.012200
     28 H8          43.8410   145.6080     2.4160 h1         1 HWX       0.012200
     29 H9          48.8290   147.9840     3.4820 hc         1 HWX       0.071700
     30 H10         47.8390   149.4230     3.1780 hc         1 HWX       0.071700
     31 H11         47.0940   147.9560     3.8030 hc         1 HWX       0.071700
     32 H12         46.5640   149.5130     1.3400 hn         1 HWX       0.332500
     33 H13         46.6500   147.9350    -2.8440 hn         1 HWX       0.340500
     34 H14         44.8340   147.9160     2.1870 hn         1 HWX       0.428000
     35 H16         44.4250   149.2330    -0.2550 hc         1 HWX       0.045200
     36 H17         44.5980   148.0300    -1.5170 hc         1 HWX       0.045200
     37 H18         46.7590   147.2870    -0.5860 h1         1 HWX       0.091700
     38 H21         49.1330   150.2670    -5.4740 hn         1 HWX       0.337500
     39 H20         49.8760   148.2090    -6.6640 ho         1 HWX       0.446000
     40 C6          44.1690   147.1950     0.4030 c3         1 HWX       0.173800
@<TRIPOS>BOND
     1     1     9 1   
     2     1    14 1   
     3     1    15 2   
     4     2     3 1   
     5     2     6 1   
     6     2     9 1   
     7     2    21 1   
     8     3    24 1   
     9     3    25 1   
    10     3    26 1   
    11     4     5 1   
    12     4    11 1   
    13     4    27 1   
    14     4    28 1   
    15     5    19 1   
    16     5    20 1   
    17     6    16 1   
    18     6    17 2   
    19     7    10 1   
    20     7    29 1   
    21     7    30 1   
    22     7    31 1   
    23     8    10 1   
    24     8    14 1   
    25     8    32 1   
    26     9    33 1   
    27    10    13 2   
    28    11    34 1   
    29    11    40 1   
    30    12    14 1   
    31    12    35 1   
    32    12    36 1   
    33    12    40 1   
    34    14    37 1   
    35    16    18 1   
    36    16    38 1   
    37    18    39 1   
    38    22    40 1   
    39    23    40 1   
@<TRIPOS>SUBSTRUCTURE
     1 HWX         1 TEMP              0 ****  ****    0 ROOT
