@<TRIPOS>MOLECULE
HWX
   40    39     1     0     0
SMALL
No Charge or Current Charge


@<TRIPOS>ATOM
      1 C4          47.0390   149.2560    -1.3050 c          1 HWX       0.588100
      2 C5          47.5080   149.6730    -3.7670 c3         1 HWX       0.036700
      3 C11         46.4720   150.7670    -4.1220 c3         1 HWX      -0.112100
      4 C7          43.4450   146.4600     2.7010 c3         1 HWX       0.014800
      5 C8          43.3070   146.9470     4.1930 c          1 HWX       0.722000
      6 C12         47.8350   148.7630    -4.9910 c          1 HWX       0.593100
      7 C13         47.7210   148.4360     3.3500 c3         1 HWX      -0.186100
      8 N1          46.8110   148.6100     1.0910 ns         1 HWX      -0.492900
      9 N2          47.0290   148.8590    -2.6260 ns         1 HWX      -0.505900
     10 C3          47.3820   147.7740     2.0240 c          1 HWX       0.617100
     11 N3          43.9920   147.4720     1.7390 n7         1 HWX      -0.858400
     12 C1          44.9140   148.0640    -0.4920 c3         1 HWX      -0.089400
     13 O1          47.6020   146.5920     1.8040 o          1 HWX      -0.628100
     14 C2          46.4520   148.2240    -0.2970 c3         1 HWX       0.035700
     15 O3          47.4910   150.3440    -0.9650 o          1 HWX      -0.613100
     16 N4          48.5260   149.3890    -6.0260 ns         1 HWX      -0.384400
     17 O8          47.5270   147.5760    -5.0380 o          1 HWX      -0.572100
     18 O9          48.6750   148.7510    -7.3180 oh         1 HWX      -0.429100
     19 O2          42.2000   146.9270     4.7170 o          1 HWX      -0.739000
     20 O4          44.3110   147.3540     4.7660 o          1 HWX      -0.739000
     21 H1          48.4480   150.1600    -3.4750 h1         1 HWX       0.077700
     22 H2          43.2840   146.6990    -0.0890 h1         1 HWX       0.015700
     23 H3          44.8750   146.0830     0.3910 h1         1 HWX       0.015700
     24 H4          46.2740   151.4120    -3.2580 hc         1 HWX       0.051033
     25 H5          46.8350   151.4030    -4.9370 hc         1 HWX       0.051033
     26 H6          45.5230   150.3140    -4.4350 hc         1 HWX       0.051033
     27 H7          42.4570   146.1210     2.3590 h1         1 HWX       0.012200
     28 H8          44.0980   145.5770     2.7160 h1         1 HWX       0.012200
     29 H9          48.1660   147.7370     4.0680 hc         1 HWX       0.071700
     30 H10         48.3760   149.2940     3.1630 hc         1 HWX       0.071700
     31 H11         46.8210   148.9120     3.7530 hc         1 HWX       0.071700
     32 H12         46.7220   149.5860     1.3510 hn         1 HWX       0.332500
     33 H13         46.6650   147.9320    -2.8250 hn         1 HWX       0.340500
     34 H14         44.8930   147.7980     2.1090 hn         1 HWX       0.428000
     35 H16         44.4170   149.0290    -0.3320 hc         1 HWX       0.045200
     36 H17         44.7280   147.8000    -1.5400 hc         1 HWX       0.045200
     37 H18         46.9290   147.2640    -0.5330 h1         1 HWX       0.091700
     38 H21         48.6440   150.4020    -6.0080 hn         1 HWX       0.337500
     39 H20         49.6410   148.8280    -7.5070 ho         1 HWX       0.446000
     40 C6          44.2390   146.9780     0.3760 c3         1 HWX       0.173800
@<TRIPOS>BOND
     1     1     9 1   
     2     1    14 1   
     3     1    15 2   
     4     2     3 1   
     5     2     6 1   
     6     2     9 1   
     7     2    21 1   
     8     3    24 1   
     9     3    25 1   
    10     3    26 1   
    11     4     5 1   
    12     4    11 1   
    13     4    27 1   
    14     4    28 1   
    15     5    19 1   
    16     5    20 1   
    17     6    16 1   
    18     6    17 2   
    19     7    10 1   
    20     7    29 1   
    21     7    30 1   
    22     7    31 1   
    23     8    10 1   
    24     8    14 1   
    25     8    32 1   
    26     9    33 1   
    27    10    13 2   
    28    11    34 1   
    29    11    40 1   
    30    12    14 1   
    31    12    35 1   
    32    12    36 1   
    33    12    40 1   
    34    14    37 1   
    35    16    18 1   
    36    16    38 1   
    37    18    39 1   
    38    22    40 1   
    39    23    40 1   
@<TRIPOS>SUBSTRUCTURE
     1 HWX         1 TEMP              0 ****  ****    0 ROOT
