@<TRIPOS>MOLECULE
HWY
   87    91     1     0     0
SMALL
No Charge or Current Charge


@<TRIPOS>ATOM
      1 C12         -5.2700     0.0390     2.4560 c3         1 HWY       0.233800
      2 C14         -6.2060    -1.2620     4.4450 c3         1 HWY      -0.094100
      3 C16         -3.9550    -0.9010     0.5220 c3         1 HWY       0.191800
      4 C17         -2.4920    -0.7900     1.0680 c3         1 HWY       0.138300
      5 C19         -1.4240    -1.2730     0.0400 c3         1 HWY       0.088700
      6 O22          0.8390     0.0700    -1.2410 o          1 HWY      -0.541000
      7 C24          3.1960     0.2720     0.1020 c5         1 HWY       0.189300
      8 C26          4.4720     2.2990     0.0510 c5         1 HWY       0.152300
      9 C28          5.5040     3.0940     1.9580 c          1 HWY       0.704100
     10 C30          5.3760     1.1490     0.5930 c5         1 HWY       0.077700
     11 O51          5.8740     3.8850     2.8140 o          1 HWY      -0.512000
     12 O27          4.6950     3.4370     0.9120 os         1 HWY      -0.404100
     13 N29          5.9310     1.7650     1.8070 n          1 HWY      -0.260400
     14 C41          6.8190     1.0500     2.6960 ca         1 HWY      -0.011000
     15 C46          7.7970     0.1880     2.1540 ca         1 HWY      -0.133000
     16 C45          8.7670    -0.4120     2.9750 ca         1 HWY      -0.089500
     17 C44          8.8030    -0.1210     4.3470 ca         1 HWY      -0.124000
     18 C43          7.8810     0.7850     4.8900 ca         1 HWY      -0.089500
     19 C42          6.9130     1.3850     4.0660 ca         1 HWY      -0.133000
     20 C25          3.0160     1.8020     0.2760 c5         1 HWY      -0.122400
     21 C31          4.3900     0.0280     1.0500 c5         1 HWY      -0.095400
     22 O23          2.0510    -0.4080     0.6690 os         1 HWY      -0.454100
     23 N20         -0.0690    -1.0370     0.5560 ns         1 HWY      -0.475900
     24 C32         -1.5770    -2.7450    -0.4280 c3         1 HWY      -0.060100
     25 C38         -0.6460    -3.0780    -1.5890 ca         1 HWY      -0.090300
     26 C37         -0.9190    -2.5740    -2.8760 ca         1 HWY      -0.100500
     27 C36         -0.0560    -2.8600    -3.9480 ca         1 HWY      -0.106500
     28 C35          1.0850    -3.6540    -3.7390 ca         1 HWY      -0.106000
     29 C34          1.3630    -4.1590    -2.4580 ca         1 HWY      -0.106500
     30 C33          0.5000    -3.8720    -1.3850 ca         1 HWY      -0.100500
     31 O18         -2.3420    -1.4970     2.3210 oh         1 HWY      -0.647000
     32 N11         -4.9360     0.1130     1.0120 n3         1 HWY      -0.791500
     33 C13         -5.9200    -1.2930     2.9260 c3         1 HWY      -0.081700
     34 C15         -7.2020    -1.6370     2.1300 c3         1 HWY      -0.094100
     35 S8          -4.7420     1.7180     0.4550 sy         1 HWY       1.198600
     36 O9          -6.1000     2.2230     0.2250 o          1 HWY      -0.546500
     37 O10         -3.8000     2.3780     1.3640 o          1 HWY      -0.546500
     38 C5          -3.9580     1.5120    -1.1530 ca         1 HWY      -0.340500
     39 C4          -4.7070     1.0050    -2.2330 ca         1 HWY       0.021000
     40 C3          -4.0880     0.7860    -3.4750 ca         1 HWY      -0.195000
     41 C6          -2.5970     1.8300    -1.3300 ca         1 HWY       0.021000
     42 C7          -1.9870     1.6120    -2.5750 ca         1 HWY      -0.195000
     43 C2          -2.7200     1.0840    -3.6480 ca         1 HWY       0.199100
     44 O39         -2.0560     0.8740    -4.8390 os         1 HWY      -0.332100
     45 C40         -2.7000     0.2850    -5.9820 c3         1 HWY       0.138900
     46 H1          -4.3700     0.2250     3.0590 h1         1 HWY       0.066700
     47 H2          -5.9790     0.8410     2.7090 h1         1 HWY       0.066700
     48 H3          -6.9300    -0.4770     4.6920 hc         1 HWY       0.039700
     49 H4          -6.6120    -2.2230     4.7830 hc         1 HWY       0.039700
     50 H5          -5.2850    -1.0690     5.0090 hc         1 HWY       0.039700
     51 H6          -3.9170    -0.8840    -0.5730 h1         1 HWY       0.059700
     52 H7          -4.3230    -1.9090     0.7500 h1         1 HWY       0.059700
     53 H8          -2.2820     0.2750     1.2320 h1         1 HWY       0.101700
     54 H9          -1.5520    -0.6460    -0.8520 h1         1 HWY       0.090700
     55 H10          3.3960    -0.0490    -0.9310 h1         1 HWY       0.068700
     56 H11          4.6870     2.5520    -0.9970 h1         1 HWY       0.089700
     57 H12          6.1300     0.8250    -0.1370 h1         1 HWY       0.073700
     58 H13          7.8130    -0.0290     1.0890 ha         1 HWY       0.124500
     59 H14          9.4990    -1.0930     2.5450 ha         1 HWY       0.115500
     60 H15          9.5560    -0.5830     4.9830 ha         1 HWY       0.117000
     61 H16          7.9200     1.0300     5.9500 ha         1 HWY       0.115500
     62 H17          6.2130     2.0840     4.5150 ha         1 HWY       0.124500
     63 H18          2.3250     2.2310    -0.4570 hc         1 HWY       0.078700
     64 H19          2.6390     2.0560     1.2750 hc         1 HWY       0.078700
     65 H20          4.0890     0.1290     2.1000 hc         1 HWY       0.076200
     66 H21          4.8210    -0.9720     0.9300 hc         1 HWY       0.076200
     67 H22          0.1590    -1.3590     1.4870 hn         1 HWY       0.328500
     68 H23         -1.3930    -3.4200     0.4170 hc         1 HWY       0.052700
     69 H24         -2.6100    -2.9300    -0.7450 hc         1 HWY       0.052700
     70 H25         -1.7970    -1.9540    -3.0460 ha         1 HWY       0.111000
     71 H26         -0.2710    -2.4660    -4.9390 ha         1 HWY       0.113000
     72 H27          1.7540    -3.8750    -4.5680 ha         1 HWY       0.113000
     73 H28          2.2470    -4.7710    -2.2950 ha         1 HWY       0.113000
     74 H29          0.7270    -4.2620    -0.3960 ha         1 HWY       0.111000
     75 H30         -2.5450    -2.4420     2.1580 ho         1 HWY       0.437000
     76 H31         -5.2020    -2.1040     2.7640 hc         1 HWY       0.039700
     77 H32         -7.6350    -2.5820     2.4800 hc         1 HWY       0.039700
     78 H33         -7.9570    -0.8500     2.2460 hc         1 HWY       0.039700
     79 H34         -6.9840    -1.7460     1.0610 hc         1 HWY       0.039700
     80 H35         -5.7600     0.7570    -2.1050 ha         1 HWY       0.134500
     81 H36         -4.6840     0.3800    -4.2870 ha         1 HWY       0.132500
     82 H37         -2.0020     2.2280    -0.5080 ha         1 HWY       0.134500
     83 H38         -0.9340     1.8420    -2.7080 ha         1 HWY       0.132500
     84 H39         -1.9910     0.1970    -6.8150 h1         1 HWY       0.050033
     85 H40         -3.0710    -0.7210    -5.7460 h1         1 HWY       0.050033
     86 H41         -3.5430     0.9020    -6.3180 h1         1 HWY       0.050033
     87 C21          0.9360    -0.4090    -0.1220 c          1 HWY       0.645100
@<TRIPOS>BOND
     1     1    32 1   
     2     1    33 1   
     3     1    46 1   
     4     1    47 1   
     5     2    33 1   
     6     2    48 1   
     7     2    49 1   
     8     2    50 1   
     9     3     4 1   
    10     3    32 1   
    11     3    51 1   
    12     3    52 1   
    13     4     5 1   
    14     4    31 1   
    15     4    53 1   
    16     5    23 1   
    17     5    24 1   
    18     5    54 1   
    19     6    87 2   
    20     7    20 1   
    21     7    21 1   
    22     7    22 1   
    23     7    55 1   
    24     8    10 1   
    25     8    12 1   
    26     8    20 1   
    27     8    56 1   
    28     9    11 2   
    29     9    12 1   
    30     9    13 1   
    31    10    13 1   
    32    10    21 1   
    33    10    57 1   
    34    13    14 1   
    35    14    15 ar  
    36    14    19 ar  
    37    15    16 ar  
    38    15    58 1   
    39    16    17 ar  
    40    16    59 1   
    41    17    18 ar  
    42    17    60 1   
    43    18    19 ar  
    44    18    61 1   
    45    19    62 1   
    46    20    63 1   
    47    20    64 1   
    48    21    65 1   
    49    21    66 1   
    50    22    87 1   
    51    23    67 1   
    52    23    87 1   
    53    24    25 1   
    54    24    68 1   
    55    24    69 1   
    56    25    26 ar  
    57    25    30 ar  
    58    26    27 ar  
    59    26    70 1   
    60    27    28 ar  
    61    27    71 1   
    62    28    29 ar  
    63    28    72 1   
    64    29    30 ar  
    65    29    73 1   
    66    30    74 1   
    67    31    75 1   
    68    32    35 1   
    69    33    34 1   
    70    33    76 1   
    71    34    77 1   
    72    34    78 1   
    73    34    79 1   
    74    35    36 2   
    75    35    37 2   
    76    35    38 1   
    77    38    39 ar  
    78    38    41 ar  
    79    39    40 ar  
    80    39    80 1   
    81    40    43 ar  
    82    40    81 1   
    83    41    42 ar  
    84    41    82 1   
    85    42    43 ar  
    86    42    83 1   
    87    43    44 1   
    88    44    45 1   
    89    45    84 1   
    90    45    85 1   
    91    45    86 1   
@<TRIPOS>SUBSTRUCTURE
     1 HWY         1 TEMP              0 ****  ****    0 ROOT
