@<TRIPOS>MOLECULE
HWY
   87    91     1     0     0
SMALL
abcg2


@<TRIPOS>ATOM
      1 C12         -5.7700    -0.5470     2.2290 c3         1 HWY       0.233800
      2 C14         -7.1370    -1.8490     3.8420 c3         1 HWY      -0.094100
      3 C16         -4.0720    -1.2700     0.5100 c3         1 HWY       0.191800
      4 C17         -2.6980    -0.7520     0.9410 c3         1 HWY       0.138300
      5 C19         -1.5790    -1.3740     0.0970 c3         1 HWY       0.088700
      6 O22          0.4180    -0.3130    -1.6600 o          1 HWY      -0.541000
      7 C24          2.9210     0.0260    -0.7040 c5         1 HWY       0.189300
      8 C26          4.5530     1.5150    -1.5430 c5         1 HWY       0.152300
      9 C28          6.0480     2.6480    -0.2560 c          1 HWY       0.704100
     10 C30          5.2830     0.4810    -0.6590 c5         1 HWY       0.077700
     11 O51          6.6700     3.5910     0.1590 o          1 HWY      -0.512000
     12 O27          5.2070     2.7550    -1.2930 os         1 HWY      -0.404100
     13 N29          6.0640     1.3610     0.1900 n          1 HWY      -0.260400
     14 C41          6.8680     0.8850     1.2380 ca         1 HWY      -0.011000
     15 C46          7.3890    -0.4050     1.1660 ca         1 HWY      -0.133000
     16 C45          8.1670    -0.9050     2.2010 ca         1 HWY      -0.089500
     17 C44          8.4400    -0.1260     3.3160 ca         1 HWY      -0.124000
     18 C43          7.9120     1.1560     3.3910 ca         1 HWY      -0.089500
     19 C42          7.1230     1.6620     2.3690 ca         1 HWY      -0.133000
     20 C25          3.1000     1.4890    -1.0950 c5         1 HWY      -0.122400
     21 C31          4.1930    -0.3110     0.0720 c5         1 HWY      -0.095400
     22 O23          1.7960    -0.2220     0.1230 os         1 HWY      -0.454100
     23 N20         -0.3150    -0.7700     0.4520 ns         1 HWY      -0.475900
     24 C32         -1.4980    -2.9070     0.2140 c3         1 HWY      -0.060100
     25 C38         -0.3970    -3.4580    -0.6460 ca         1 HWY      -0.090300
     26 C37         -0.6230    -3.7330    -1.9920 ca         1 HWY      -0.100500
     27 C36          0.4080    -4.1660    -2.8130 ca         1 HWY      -0.106500
     28 C35          1.6890    -4.3230    -2.2980 ca         1 HWY      -0.106000
     29 C34          1.9260    -4.0560    -0.9560 ca         1 HWY      -0.106500
     30 C33          0.8880    -3.6320    -0.1370 ca         1 HWY      -0.100500
     31 O18         -2.4700    -0.8970     2.3250 oh         1 HWY      -0.647000
     32 N11         -5.1750    -0.4060     0.9040 n3         1 HWY      -0.791500
     33 C13         -6.6240    -1.8020     2.4070 c3         1 HWY      -0.081700
     34 C15         -7.7710    -1.8670     1.4080 c3         1 HWY      -0.094100
     35 S8          -5.8130     0.5730    -0.2500 sy         1 HWY       1.198600
     36 O9          -6.1530    -0.1980    -1.4400 o          1 HWY      -0.546500
     37 O10         -6.8540     1.3710     0.3820 o          1 HWY      -0.546500
     38 C5          -4.4570     1.6120    -0.6830 ca         1 HWY      -0.340500
     39 C4          -3.7000     1.3380    -1.8100 ca         1 HWY       0.021000
     40 C3          -2.5470     2.0630    -2.0660 ca         1 HWY      -0.195000
     41 C6          -4.0810     2.6330     0.1890 ca         1 HWY       0.021000
     42 C7          -2.9410     3.3620    -0.0670 ca         1 HWY      -0.195000
     43 C2          -2.1530     3.0710    -1.1890 ca         1 HWY       0.199100
     44 O39         -1.0450     3.8040    -1.3390 os         1 HWY      -0.332100
     45 C40         -0.1720     3.4960    -2.4120 c3         1 HWY       0.138900
     46 H1          -4.9550    -0.5470     2.9550 h1         1 HWY       0.066700
     47 H2          -6.3690     0.3370     2.4430 h1         1 HWY       0.066700
     48 H3          -7.8220    -1.0210     4.0420 hc         1 HWY       0.039700
     49 H4          -7.6770    -2.7770     4.0330 hc         1 HWY       0.039700
     50 H5          -6.3200    -1.7860     4.5640 hc         1 HWY       0.039700
     51 H6          -4.0860    -1.4100    -0.5730 h1         1 HWY       0.059700
     52 H7          -4.2530    -2.2690     0.9190 h1         1 HWY       0.059700
     53 H8          -2.6580     0.3240     0.7530 h1         1 HWY       0.101700
     54 H9          -1.7810    -1.1120    -0.9440 h1         1 HWY       0.090700
     55 H10          2.8650    -0.5950    -1.6030 h1         1 HWY       0.068700
     56 H11          4.6510     1.2890    -2.6040 h1         1 HWY       0.089700
     57 H12          5.9310    -0.1660    -1.2540 h1         1 HWY       0.073700
     58 H13          7.2010    -1.0320     0.3050 ha         1 HWY       0.124500
     59 H14          8.5620    -1.9090     2.1260 ha         1 HWY       0.115500
     60 H15          9.0480    -0.5160     4.1220 ha         1 HWY       0.117000
     61 H16          8.1030     1.7720     4.2600 ha         1 HWY       0.115500
     62 H17          6.7060     2.6530     2.4660 ha         1 HWY       0.124500
     63 H18          2.4140     1.8190    -1.8730 hc         1 HWY       0.078700
     64 H19          2.9610     2.1230    -0.2140 hc         1 HWY       0.078700
     65 H20          4.0980     0.0400     1.1020 hc         1 HWY       0.076200
     66 H21          4.3940    -1.3810     0.0970 hc         1 HWY       0.076200
     67 H22          0.0060    -0.9180     1.3970 hn         1 HWY       0.328500
     68 H23         -1.3270    -3.1900     1.2570 hc         1 HWY       0.052700
     69 H24         -2.4560    -3.3450    -0.0800 hc         1 HWY       0.052700
     70 H25         -1.6180    -3.6020    -2.4040 ha         1 HWY       0.111000
     71 H26          0.2130    -4.3790    -3.8560 ha         1 HWY       0.113000
     72 H27          2.4960    -4.6570    -2.9370 ha         1 HWY       0.113000
     73 H28          2.9200    -4.1800    -0.5450 ha         1 HWY       0.113000
     74 H29          1.0790    -3.4300     0.9100 ha         1 HWY       0.111000
     75 H30         -2.6110    -1.8160     2.5780 ho         1 HWY       0.437000
     76 H31         -5.9840    -2.6790     2.2550 hc         1 HWY       0.039700
     77 H32         -8.3860    -2.7510     1.5820 hc         1 HWY       0.039700
     78 H33         -8.4160    -0.9900     1.4920 hc         1 HWY       0.039700
     79 H34         -7.4140    -1.9220     0.3790 hc         1 HWY       0.039700
     80 H35         -3.9900     0.5560    -2.4980 ha         1 HWY       0.134500
     81 H36         -1.9730     1.8230    -2.9500 ha         1 HWY       0.132500
     82 H37         -4.6650     2.8570     1.0710 ha         1 HWY       0.134500
     83 H38         -2.6390     4.1540     0.6060 ha         1 HWY       0.132500
     84 H39          0.6860     4.1540    -2.3090 h1         1 HWY       0.050033
     85 H40          0.1650     2.4580    -2.3690 h1         1 HWY       0.050033
     86 H41         -0.6420     3.6770    -3.3820 h1         1 HWY       0.050033
     87 C21          0.6110    -0.4360    -0.4700 c          1 HWY       0.645100
@<TRIPOS>BOND
     1     1    32 1   
     2     1    33 1   
     3     1    46 1   
     4     1    47 1   
     5     2    33 1   
     6     2    48 1   
     7     2    49 1   
     8     2    50 1   
     9     3     4 1   
    10     3    32 1   
    11     3    51 1   
    12     3    52 1   
    13     4     5 1   
    14     4    31 1   
    15     4    53 1   
    16     5    23 1   
    17     5    24 1   
    18     5    54 1   
    19     6    87 2   
    20     7    20 1   
    21     7    21 1   
    22     7    22 1   
    23     7    55 1   
    24     8    10 1   
    25     8    12 1   
    26     8    20 1   
    27     8    56 1   
    28     9    11 2   
    29     9    12 1   
    30     9    13 1   
    31    10    13 1   
    32    10    21 1   
    33    10    57 1   
    34    13    14 1   
    35    14    15 ar  
    36    14    19 ar  
    37    15    16 ar  
    38    15    58 1   
    39    16    17 ar  
    40    16    59 1   
    41    17    18 ar  
    42    17    60 1   
    43    18    19 ar  
    44    18    61 1   
    45    19    62 1   
    46    20    63 1   
    47    20    64 1   
    48    21    65 1   
    49    21    66 1   
    50    22    87 1   
    51    23    67 1   
    52    23    87 1   
    53    24    25 1   
    54    24    68 1   
    55    24    69 1   
    56    25    26 ar  
    57    25    30 ar  
    58    26    27 ar  
    59    26    70 1   
    60    27    28 ar  
    61    27    71 1   
    62    28    29 ar  
    63    28    72 1   
    64    29    30 ar  
    65    29    73 1   
    66    30    74 1   
    67    31    75 1   
    68    32    35 1   
    69    33    34 1   
    70    33    76 1   
    71    34    77 1   
    72    34    78 1   
    73    34    79 1   
    74    35    36 2   
    75    35    37 2   
    76    35    38 1   
    77    38    39 ar  
    78    38    41 ar  
    79    39    40 ar  
    80    39    80 1   
    81    40    43 ar  
    82    40    81 1   
    83    41    42 ar  
    84    41    82 1   
    85    42    43 ar  
    86    42    83 1   
    87    43    44 1   
    88    44    45 1   
    89    45    84 1   
    90    45    85 1   
    91    45    86 1   
@<TRIPOS>SUBSTRUCTURE
     1 HWY         1 TEMP              0 ****  ****    0 ROOT
