@<TRIPOS>MOLECULE
HWZ
   51    53     1     0     0
SMALL
No Charge or Current Charge


@<TRIPOS>ATOM
      1 C17          4.7650    44.1460    59.9080 c6         1 HWZ       0.165800
      2 C12          2.9580    47.6060    62.4690 c3         1 HWZ       0.223100
      3 C13          4.0540    46.5280    60.4100 c6         1 HWZ       0.240500
      4 C3           8.0810    46.3470    57.2980 c1         1 HWZ       0.303900
      5 C4           7.1130    49.3170    60.7780 ca         1 HWZ       0.440900
      6 C5           6.9260    50.5480    61.4510 ca         1 HWZ      -0.211000
      7 C6           7.8830    51.5890    61.4340 ca         1 HWZ      -0.053000
      8 C1           8.2170    48.4000    58.7060 c3         1 HWZ       0.236800
      9 C2           8.2460    46.8580    58.6590 c3         1 HWZ      -0.050300
     10 C10          5.7060    50.7260    62.1440 ca         1 HWZ       0.098000
     11 C11          5.0280    48.6350    61.4420 ca         1 HWZ       0.436900
     12 N1           7.9230    45.9410    56.2180 n1         1 HWZ      -0.467000
     13 C            9.5980    48.9310    60.7660 c3         1 HWZ       0.215100
     14 N3           6.1580    48.3770    60.7670 nb         1 HWZ      -0.349000
     15 N2           4.7670    49.7610    62.1350 nb         1 HWZ      -0.287000
     16 C9           5.4760    51.9290    62.8370 ca         1 HWZ      -0.122000
     17 C8           6.4360    52.9540    62.8340 ca         1 HWZ      -0.070000
     18 C7           7.6360    52.7850    62.1280 ca         1 HWZ      -0.153000
     19 N4           4.0210    47.6320    61.4280 nh         1 HWZ      -0.774300
     20 C18          4.7040    45.2500    60.9870 c6         1 HWZ      -0.089400
     21 N5           3.4170    43.8550    59.3460 n3         1 HWZ      -0.716600
     22 C16          3.4400    42.7280    58.3890 c3         1 HWZ       0.151100
     23 C15          2.7800    45.0720    58.7710 c6         1 HWZ       0.165800
     24 C14          2.6580    46.1940    59.8260 c6         1 HWZ      -0.089400
     25 H1           5.1940    43.2380    60.3570 h1         1 HWZ       0.033200
     26 H2           5.4500    44.4640    59.1070 h1         1 HWZ       0.033200
     27 H3           3.3350    47.9900    63.4260 h1         1 HWZ       0.042367
     28 H4           2.1000    48.2170    62.1580 h1         1 HWZ       0.042367
     29 H5           2.6100    46.5810    62.6560 h1         1 HWZ       0.042367
     30 H6           4.6590    46.8420    59.5450 h1         1 HWZ       0.082700
     31 H7           8.8110    51.4910    60.8780 ha         1 HWZ       0.109000
     32 H8           9.0500    48.7910    58.1040 h1         1 HWZ       0.065700
     33 H9           7.2970    48.7520    58.2170 h1         1 HWZ       0.065700
     34 H10          9.1960    46.4900    59.0600 hc         1 HWZ       0.082200
     35 H11          7.4460    46.4480    59.2830 hc         1 HWZ       0.082200
     36 H12          9.4990    49.2680    61.8070 h1         1 HWZ       0.044033
     37 H13          9.9990    47.9100    60.7830 h1         1 HWZ       0.044033
     38 H14         10.3210    49.5870    60.2620 h1         1 HWZ       0.044033
     39 H15          4.5420    52.0710    63.3760 ha         1 HWZ       0.131000
     40 H16          6.2450    53.8810    63.3720 ha         1 HWZ       0.113000
     41 H17          8.3750    53.5830    62.1140 ha         1 HWZ       0.114000
     42 H18          4.1340    44.8870    61.8520 hc         1 HWZ       0.052700
     43 H19          5.7180    45.4700    61.3450 hc         1 HWZ       0.052700
     44 H21          3.8530    41.8260    58.8610 h1         1 HWZ       0.032033
     45 H22          2.4250    42.4920    58.0420 h1         1 HWZ       0.032033
     46 H23          4.0560    42.9700    57.5120 h1         1 HWZ       0.032033
     47 H24          3.3680    45.4420    57.9170 h1         1 HWZ       0.033200
     48 H25          1.7750    44.8330    58.3930 h1         1 HWZ       0.033200
     49 H26          2.2180    47.0880    59.3650 hc         1 HWZ       0.052700
     50 H27          1.9660    45.8640    60.6110 hc         1 HWZ       0.052700
     51 N            8.2890    48.9730    60.0730 nh         1 HWZ      -0.790300
@<TRIPOS>BOND
     1     1    20 1   
     2     1    21 1   
     3     1    25 1   
     4     1    26 1   
     5     2    19 1   
     6     2    27 1   
     7     2    28 1   
     8     2    29 1   
     9     3    19 1   
    10     3    20 1   
    11     3    24 1   
    12     3    30 1   
    13     4     9 1   
    14     4    12 3   
    15     5     6 ar  
    16     5    14 ar  
    17     5    51 1   
    18     6     7 ar  
    19     6    10 ar  
    20     7    18 ar  
    21     7    31 1   
    22     8     9 1   
    23     8    32 1   
    24     8    33 1   
    25     8    51 1   
    26     9    34 1   
    27     9    35 1   
    28    10    15 ar  
    29    10    16 ar  
    30    11    14 ar  
    31    11    15 ar  
    32    11    19 1   
    33    13    36 1   
    34    13    37 1   
    35    13    38 1   
    36    13    51 1   
    37    16    17 ar  
    38    16    39 1   
    39    17    18 ar  
    40    17    40 1   
    41    18    41 1   
    42    20    42 1   
    43    20    43 1   
    44    21    22 1   
    45    21    23 1   
    46    22    44 1   
    47    22    45 1   
    48    22    46 1   
    49    23    24 1   
    50    23    47 1   
    51    23    48 1   
    52    24    49 1   
    53    24    50 1   
@<TRIPOS>SUBSTRUCTURE
     1 HWZ         1 TEMP              0 ****  ****    0 ROOT
