@<TRIPOS>MOLECULE
HWZ
   51    53     1     0     0
SMALL
abcg2


@<TRIPOS>ATOM
      1 C17          4.4680    44.0240    60.0200 c6         1 HWZ       0.165800
      2 C12          3.0910    47.5770    62.3770 c3         1 HWZ       0.223100
      3 C13          4.2220    46.4740    60.4360 c6         1 HWZ       0.240500
      4 C3           8.1590    45.6850    58.3150 c1         1 HWZ       0.303900
      5 C4           7.0550    49.3650    60.5790 ca         1 HWZ       0.440900
      6 C5           6.9340    50.5300    61.4240 ca         1 HWZ      -0.211000
      7 C6           7.7050    51.7050    61.3360 ca         1 HWZ      -0.053000
      8 C1           7.9870    48.1090    58.7450 c3         1 HWZ       0.236800
      9 C2           8.3050    46.7190    59.3230 c3         1 HWZ      -0.050300
     10 C10          5.8670    50.4700    62.3550 ca         1 HWZ       0.098000
     11 C11          5.1040    48.5290    61.4620 ca         1 HWZ       0.436900
     12 N1           8.0260    44.8760    57.5070 n1         1 HWZ      -0.467000
     13 C            9.4400    49.6640    59.9580 c3         1 HWZ       0.215100
     14 N3           6.1190    48.4480    60.5790 nb         1 HWZ      -0.349000
     15 N2           4.9750    49.4570    62.3900 nb         1 HWZ      -0.287000
     16 C9           5.7030    51.5420    63.2610 ca         1 HWZ      -0.122000
     17 C8           6.5050    52.6510    63.1890 ca         1 HWZ      -0.070000
     18 C7           7.4970    52.7510    62.2010 ca         1 HWZ      -0.153000
     19 N4           4.1650    47.5550    61.4080 nh         1 HWZ      -0.774300
     20 C18          4.4030    45.1060    61.0860 c6         1 HWZ      -0.089400
     21 N5           3.2870    44.0370    59.1780 n3         1 HWZ      -0.716600
     22 C16          3.3090    42.9480    58.2290 c3         1 HWZ       0.151100
     23 C15          3.1350    45.3150    58.5080 c6         1 HWZ       0.165800
     24 C14          3.0120    46.4560    59.5070 c6         1 HWZ      -0.089400
     25 H1           4.5500    43.0430    60.4940 h1         1 HWZ       0.033200
     26 H2           5.3880    44.1580    59.4190 h1         1 HWZ       0.033200
     27 H3           3.4680    47.5330    63.4000 h1         1 HWZ       0.042367
     28 H4           2.4780    48.4750    62.2860 h1         1 HWZ       0.042367
     29 H5           2.4470    46.7150    62.2240 h1         1 HWZ       0.042367
     30 H6           5.1000    46.6610    59.8200 h1         1 HWZ       0.082700
     31 H7           8.4530    51.8190    60.5660 ha         1 HWZ       0.109000
     32 H8           8.6810    48.3370    57.9370 h1         1 HWZ       0.065700
     33 H9           6.9830    48.1080    58.3240 h1         1 HWZ       0.065700
     34 H10          9.3240    46.6790    59.7120 hc         1 HWZ       0.082200
     35 H11          7.6250    46.4940    60.1460 hc         1 HWZ       0.082200
     36 H12          9.5890    49.9510    60.9950 h1         1 HWZ       0.044033
     37 H13         10.1580    48.8730    59.7410 h1         1 HWZ       0.044033
     38 H14          9.6800    50.5120    59.3140 h1         1 HWZ       0.044033
     39 H15          4.9080    51.4740    63.9930 ha         1 HWZ       0.131000
     40 H16          6.3540    53.4690    63.8830 ha         1 HWZ       0.113000
     41 H17          8.0920    53.6500    62.1160 ha         1 HWZ       0.114000
     42 H18          3.5760    44.8920    61.7700 hc         1 HWZ       0.052700
     43 H19          5.3230    45.0920    61.6770 hc         1 HWZ       0.052700
     44 H21          3.3730    41.9930    58.7540 h1         1 HWZ       0.032033
     45 H22          2.3910    42.9450    57.6390 h1         1 HWZ       0.032033
     46 H23          4.1580    43.0030    57.5290 h1         1 HWZ       0.032033
     47 H24          3.9830    45.5120    57.8260 h1         1 HWZ       0.033200
     48 H25          2.2390    45.2790    57.8830 h1         1 HWZ       0.033200
     49 H26          2.9410    47.4050    58.9690 hc         1 HWZ       0.052700
     50 H27          2.0870    46.3340    60.0770 hc         1 HWZ       0.052700
     51 N            8.0980    49.1580    59.7350 nh         1 HWZ      -0.790300
@<TRIPOS>BOND
     1     1    20 1   
     2     1    21 1   
     3     1    25 1   
     4     1    26 1   
     5     2    19 1   
     6     2    27 1   
     7     2    28 1   
     8     2    29 1   
     9     3    19 1   
    10     3    20 1   
    11     3    24 1   
    12     3    30 1   
    13     4     9 1   
    14     4    12 3   
    15     5     6 ar  
    16     5    14 ar  
    17     5    51 1   
    18     6     7 ar  
    19     6    10 ar  
    20     7    18 ar  
    21     7    31 1   
    22     8     9 1   
    23     8    32 1   
    24     8    33 1   
    25     8    51 1   
    26     9    34 1   
    27     9    35 1   
    28    10    15 ar  
    29    10    16 ar  
    30    11    14 ar  
    31    11    15 ar  
    32    11    19 1   
    33    13    36 1   
    34    13    37 1   
    35    13    38 1   
    36    13    51 1   
    37    16    17 ar  
    38    16    39 1   
    39    17    18 ar  
    40    17    40 1   
    41    18    41 1   
    42    20    42 1   
    43    20    43 1   
    44    21    22 1   
    45    21    23 1   
    46    22    44 1   
    47    22    45 1   
    48    22    46 1   
    49    23    24 1   
    50    23    47 1   
    51    23    48 1   
    52    24    49 1   
    53    24    50 1   
@<TRIPOS>SUBSTRUCTURE
     1 HWZ         1 TEMP              0 ****  ****    0 ROOT
