@<TRIPOS>MOLECULE
HX0
  101   100     1     0     0
SMALL
abcg2


@<TRIPOS>ATOM
      1 CAH         -0.6910    10.0630     1.1430 c3         1 HX0      -0.090100
      2 CAG         -0.4980     8.7210     1.8360 c3         1 HX0      -0.073400
      3 CAF         -0.4850     7.5510     0.8590 c3         1 HX0      -0.075400
      4 CAE         -0.3160     6.1970     1.5360 c3         1 HX0      -0.074400
      5 CAD         -0.2930     5.0400     0.5450 c3         1 HX0      -0.074400
      6 CAC         -0.1550     3.6780     1.2120 c3         1 HX0      -0.074400
      7 CAB         -0.1220     2.5450     0.1900 c3         1 HX0      -0.099150
      8 CAA         -0.0520     1.2050     0.8960 c3         1 HX0       0.097850
      9 NAQ         -0.0020    -0.0040    -0.0050 n4         1 HX0      -0.503000
     10 CAP          0.0520    -1.2130     0.8960 c3         1 HX0       0.097850
     11 CAO          0.1190    -2.5530     0.1910 c3         1 HX0      -0.099150
     12 CAN          0.1530    -3.6850     1.2140 c3         1 HX0      -0.074400
     13 CAM          0.2880    -5.0480     0.5480 c3         1 HX0      -0.074400
     14 CAL          0.3130    -6.2040     1.5400 c3         1 HX0      -0.074400
     15 CAK          0.4800    -7.5590     0.8640 c3         1 HX0      -0.075400
     16 CAJ          0.4940    -8.7280     1.8420 c3         1 HX0      -0.073400
     17 CAI          0.6850   -10.0710     1.1510 c3         1 HX0      -0.090100
     18 CAZ         -1.2120    -0.0570    -0.9040 c3         1 HX0       0.097850
     19 CBA         -2.5520    -0.1250    -0.1960 c3         1 HX0      -0.099150
     20 CBB         -3.6850    -0.1590    -1.2170 c3         1 HX0      -0.074400
     21 CBC         -5.0470    -0.2980    -0.5490 c3         1 HX0      -0.074400
     22 CBD         -6.2040    -0.3220    -1.5400 c3         1 HX0      -0.074400
     23 CBE         -7.5580    -0.4930    -0.8620 c3         1 HX0      -0.075400
     24 CBF         -8.7280    -0.5060    -1.8380 c3         1 HX0      -0.073400
     25 CBG        -10.0690    -0.7020    -1.1450 c3         1 HX0      -0.090100
     26 CAR          1.2050     0.0480    -0.9090 c3         1 HX0       0.097850
     27 CAS          2.5470     0.1160    -0.2060 c3         1 HX0      -0.099150
     28 CAT          3.6780     0.1500    -1.2310 c3         1 HX0      -0.074400
     29 CAU          5.0420     0.2840    -0.5660 c3         1 HX0      -0.074400
     30 CAV          6.1970     0.3070    -1.5580 c3         1 HX0      -0.074400
     31 CAW          7.5530     0.4720    -0.8820 c3         1 HX0      -0.075400
     32 CAX          8.7200     0.4860    -1.8610 c3         1 HX0      -0.073400
     33 CAY         10.0640     0.6730    -1.1700 c3         1 HX0      -0.090100
     34 HAH1         0.1030    10.2490     0.4160 hc         1 HX0       0.036700
     35 HAH2        -1.6400    10.0940     0.6050 hc         1 HX0       0.036700
     36 HAH3        -0.6870    10.8890     1.8550 hc         1 HX0       0.036700
     37 HAG1         0.4380     8.7290     2.4030 hc         1 HX0       0.039200
     38 HAG2        -1.2960     8.5700     2.5690 hc         1 HX0       0.039200
     39 HAF1        -1.4160     7.5530     0.2810 hc         1 HX0       0.039700
     40 HAF2         0.3220     7.6970     0.1320 hc         1 HX0       0.039700
     41 HAE1         0.6100     6.1930     2.1220 hc         1 HX0       0.042200
     42 HAE2        -1.1300     6.0460     2.2540 hc         1 HX0       0.042200
     43 HAD1        -1.2120     5.0570    -0.0520 hc         1 HX0       0.043200
     44 HAD2         0.5310     5.1840    -0.1610 hc         1 HX0       0.043200
     45 HAC1         0.7570     3.6520     1.8170 hc         1 HX0       0.050200
     46 HAC2        -0.9900     3.5250     1.9040 hc         1 HX0       0.050200
     47 HAB1        -1.0140     2.6120    -0.4370 hc         1 HX0       0.061700
     48 HAB2         0.7380     2.6870    -0.4680 hc         1 HX0       0.061700
     49 HAA          0.8310     1.1560     1.5310 hx         1 HX0       0.088700
     50 HAP          0.9170    -1.0800     1.5460 hx         1 HX0       0.088700
     51 HAZ         -1.1640     0.8240    -1.5420 hx         1 HX0       0.088700
     52 HAR          1.1550    -0.8340    -1.5460 hx         1 HX0       0.088700
     53 HAO1        -0.7450    -2.6940    -0.4630 hc         1 HX0       0.061700
     54 HAO2         1.0080    -2.6210    -0.4390 hc         1 HX0       0.061700
     55 HAN1         0.9910    -3.5320     1.9030 hc         1 HX0       0.050200
     56 HAN2        -0.7570    -3.6580     1.8220 hc         1 HX0       0.050200
     57 HAM1        -0.5380    -5.1920    -0.1550 hc         1 HX0       0.043200
     58 HAM2         1.2050    -5.0670    -0.0520 hc         1 HX0       0.043200
     59 HAL1         1.1280    -6.0530     2.2560 hc         1 HX0       0.042200
     60 HAL2        -0.6120    -6.1990     2.1280 hc         1 HX0       0.042200
     61 HAK1        -0.3280    -7.7050     0.1390 hc         1 HX0       0.039700
     62 HAK2         1.4110    -7.5620     0.2850 hc         1 HX0       0.039700
     63 HAJ1         1.2930    -8.5770     2.5750 hc         1 HX0       0.039200
     64 HAJ2        -0.4410    -8.7350     2.4110 hc         1 HX0       0.039200
     65 HAI1        -0.1120   -10.2590     0.4280 hc         1 HX0       0.036700
     66 HAI2         1.6320   -10.1020     0.6090 hc         1 HX0       0.036700
     67 HAI3         0.6850   -10.8960     1.8640 hc         1 HX0       0.036700
     68 HBA1        -2.6170    -1.0160     0.4330 hc         1 HX0       0.061700
     69 HBA2        -2.6920     0.7360     0.4610 hc         1 HX0       0.061700
     70 HBB1        -3.6610     0.7520    -1.8230 hc         1 HX0       0.050200
     71 HBB2        -3.5320    -0.9940    -1.9080 hc         1 HX0       0.050200
     72 HBC1        -5.0630    -1.2160     0.0480 hc         1 HX0       0.043200
     73 HBC2        -5.1900     0.5260     0.1570 hc         1 HX0       0.043200
     74 HBD1        -6.2020     0.6050    -2.1250 hc         1 HX0       0.042200
     75 HBD2        -6.0530    -1.1350    -2.2580 hc         1 HX0       0.042200
     76 HBE1        -7.5590    -1.4240    -0.2840 hc         1 HX0       0.039700
     77 HBE2        -7.7040     0.3130    -0.1340 hc         1 HX0       0.039700
     78 HBF1        -8.7380     0.4300    -2.4040 hc         1 HX0       0.039200
     79 HBF2        -8.5770    -1.3030    -2.5730 hc         1 HX0       0.039200
     80 HBG1       -10.8960    -0.6970    -1.8560 hc         1 HX0       0.036700
     81 HBG2       -10.1000    -1.6530    -0.6090 hc         1 HX0       0.036700
     82 HBG3       -10.2560     0.0900    -0.4160 hc         1 HX0       0.036700
     83 HAS1         2.6150     1.0060     0.4230 hc         1 HX0       0.061700
     84 HAS2         2.6890    -0.7470     0.4490 hc         1 HX0       0.061700
     85 HAT1         3.6500    -0.7600    -1.8380 hc         1 HX0       0.050200
     86 HAT2         3.5250     0.9870    -1.9190 hc         1 HX0       0.050200
     87 HAU1         5.0610     1.2000     0.0350 hc         1 HX0       0.043200
     88 HAU2         5.1840    -0.5430     0.1380 hc         1 HX0       0.043200
     89 HAV1         6.1910    -0.6170    -2.1460 hc         1 HX0       0.042200
     90 HAV2         6.0460     1.1230    -2.2730 hc         1 HX0       0.042200
     91 HAW1         7.5570     1.4010    -0.3010 hc         1 HX0       0.039700
     92 HAW2         7.6980    -0.3370    -0.1580 hc         1 HX0       0.039700
     93 HAX1         8.7260    -0.4470    -2.4320 hc         1 HX0       0.039200
     94 HAX2         8.5700     1.2870    -2.5910 hc         1 HX0       0.039200
     95 HAB         -0.9150     1.0720     1.5480 hx         1 HX0       0.088700
     96 HAQ         -0.8280    -1.1630     1.5350 hx         1 HX0       0.088700
     97 HBA         -1.0810    -0.9210    -1.5540 hx         1 HX0       0.088700
     98 HAO          1.0710     0.9110    -1.5600 hx         1 HX0       0.088700
     99 HAY1        10.0990     1.6210    -0.6290 hc         1 HX0       0.036700
    100 HAY2        10.2500    -0.1230    -0.4460 hc         1 HX0       0.036700
    101 HAY3        10.8890     0.6700    -1.8830 hc         1 HX0       0.036700
@<TRIPOS>BOND
     1     1     2 1   
     2     1    34 1   
     3     1    35 1   
     4     1    36 1   
     5     2     3 1   
     6     2    37 1   
     7     2    38 1   
     8     3     4 1   
     9     3    39 1   
    10     3    40 1   
    11     4     5 1   
    12     4    41 1   
    13     4    42 1   
    14     5     6 1   
    15     5    43 1   
    16     5    44 1   
    17     6     7 1   
    18     6    45 1   
    19     6    46 1   
    20     7     8 1   
    21     7    47 1   
    22     7    48 1   
    23     8     9 1   
    24     8    49 1   
    25     8    95 1   
    26     9    10 1   
    27     9    18 1   
    28     9    26 1   
    29    10    11 1   
    30    10    50 1   
    31    10    96 1   
    32    11    12 1   
    33    11    53 1   
    34    11    54 1   
    35    12    13 1   
    36    12    55 1   
    37    12    56 1   
    38    13    14 1   
    39    13    57 1   
    40    13    58 1   
    41    14    15 1   
    42    14    59 1   
    43    14    60 1   
    44    15    16 1   
    45    15    61 1   
    46    15    62 1   
    47    16    17 1   
    48    16    63 1   
    49    16    64 1   
    50    17    65 1   
    51    17    66 1   
    52    17    67 1   
    53    18    19 1   
    54    18    51 1   
    55    18    97 1   
    56    19    20 1   
    57    19    68 1   
    58    19    69 1   
    59    20    21 1   
    60    20    70 1   
    61    20    71 1   
    62    21    22 1   
    63    21    72 1   
    64    21    73 1   
    65    22    23 1   
    66    22    74 1   
    67    22    75 1   
    68    23    24 1   
    69    23    76 1   
    70    23    77 1   
    71    24    25 1   
    72    24    78 1   
    73    24    79 1   
    74    25    80 1   
    75    25    81 1   
    76    25    82 1   
    77    26    27 1   
    78    26    52 1   
    79    26    98 1   
    80    27    28 1   
    81    27    83 1   
    82    27    84 1   
    83    28    29 1   
    84    28    85 1   
    85    28    86 1   
    86    29    30 1   
    87    29    87 1   
    88    29    88 1   
    89    30    31 1   
    90    30    89 1   
    91    30    90 1   
    92    31    32 1   
    93    31    91 1   
    94    31    92 1   
    95    32    33 1   
    96    32    93 1   
    97    32    94 1   
    98    33    99 1   
    99    33   100 1   
   100    33   101 1   
@<TRIPOS>SUBSTRUCTURE
     1 HX0         1 TEMP              0 ****  ****    0 ROOT
