@<TRIPOS>MOLECULE
HX0
  101   100     1     0     0
SMALL
No Charge or Current Charge


@<TRIPOS>ATOM
      1 CAH         -0.6310    10.2530     1.2960 c3         1 HX0      -0.090100
      2 CAG         -0.5450     8.8650     1.9590 c3         1 HX0      -0.073400
      3 CAF         -0.4750     7.7100     0.9360 c3         1 HX0      -0.075400
      4 CAE         -0.3880     6.3180     1.6000 c3         1 HX0      -0.074400
      5 CAD         -0.3190     5.1640     0.5770 c3         1 HX0      -0.074400
      6 CAC         -0.2320     3.7730     1.2410 c3         1 HX0      -0.074400
      7 CAB         -0.1630     2.6210     0.2180 c3         1 HX0      -0.099150
      8 CAA         -0.0770     1.2390     0.9000 c3         1 HX0       0.097850
      9 NAQ         -0.0020    -0.0060    -0.0050 n4         1 HX0      -0.503000
     10 CAP          0.0750    -1.2490     0.9010 c3         1 HX0       0.097850
     11 CAO          0.1590    -2.6320     0.2200 c3         1 HX0      -0.099150
     12 CAN          0.2310    -3.7830     1.2440 c3         1 HX0      -0.074400
     13 CAM          0.3150    -5.1750     0.5810 c3         1 HX0      -0.074400
     14 CAL          0.3870    -6.3280     1.6050 c3         1 HX0      -0.074400
     15 CAK          0.4720    -7.7200     0.9420 c3         1 HX0      -0.075400
     16 CAJ          0.5440    -8.8740     1.9660 c3         1 HX0      -0.073400
     17 CAI          0.6280   -10.2640     1.3050 c3         1 HX0      -0.090100
     18 CAZ         -1.2480    -0.0820    -0.9090 c3         1 HX0       0.097850
     19 CBA         -2.6290    -0.1670    -0.2260 c3         1 HX0      -0.099150
     20 CBB         -3.7820    -0.2380    -1.2480 c3         1 HX0      -0.074400
     21 CBC         -5.1720    -0.3230    -0.5830 c3         1 HX0      -0.074400
     22 CBD         -6.3280    -0.3950    -1.6050 c3         1 HX0      -0.074400
     23 CBE         -7.7190    -0.4800    -0.9390 c3         1 HX0      -0.075400
     24 CBF         -8.8740    -0.5520    -1.9610 c3         1 HX0      -0.073400
     25 CBG        -10.2620    -0.6380    -1.2970 c3         1 HX0      -0.090100
     26 CAR          1.2410     0.0700    -0.9130 c3         1 HX0       0.097850
     27 CAS          2.6240     0.1550    -0.2330 c3         1 HX0      -0.099150
     28 CAT          3.7740     0.2250    -1.2580 c3         1 HX0      -0.074400
     29 CAU          5.1660     0.3110    -0.5960 c3         1 HX0      -0.074400
     30 CAV          6.3190     0.3810    -1.6220 c3         1 HX0      -0.074400
     31 CAW          7.7120     0.4660    -0.9600 c3         1 HX0      -0.075400
     32 CAX          8.8650     0.5360    -1.9850 c3         1 HX0      -0.073400
     33 CAY         10.2550     0.6210    -1.3250 c3         1 HX0      -0.090100
     34 HAH1         0.2480    10.4390     0.6680 hc         1 HX0       0.036700
     35 HAH2        -1.5280    10.3300     0.6700 hc         1 HX0       0.036700
     36 HAH3        -0.6780    11.0390     2.0600 hc         1 HX0       0.036700
     37 HAG1         0.3410     8.8330     2.6050 hc         1 HX0       0.039200
     38 HAG2        -1.4190     8.7240     2.6070 hc         1 HX0       0.039200
     39 HAF1        -1.3610     7.7470     0.2900 hc         1 HX0       0.039700
     40 HAF2         0.3990     7.8550     0.2890 hc         1 HX0       0.039700
     41 HAE1         0.4980     6.2820     2.2460 hc         1 HX0       0.042200
     42 HAE2        -1.2620     6.1740     2.2480 hc         1 HX0       0.042200
     43 HAD1        -1.2050     5.2010    -0.0690 hc         1 HX0       0.043200
     44 HAD2         0.5550     5.3090    -0.0710 hc         1 HX0       0.043200
     45 HAC1         0.6540     3.7350     1.8870 hc         1 HX0       0.050200
     46 HAC2        -1.1070     3.6270     1.8890 hc         1 HX0       0.050200
     47 HAB1        -1.0500     2.6590    -0.4240 hc         1 HX0       0.061700
     48 HAB2         0.7110     2.7670    -0.4260 hc         1 HX0       0.061700
     49 HAA          0.8060     1.2270     1.5420 hx         1 HX0       0.088700
     50 HAP          0.9500    -1.1290     1.5430 hx         1 HX0       0.088700
     51 HAZ         -1.2360     0.8000    -1.5530 hx         1 HX0       0.088700
     52 HAR          1.2270    -0.8120    -1.5560 hx         1 HX0       0.088700
     53 HAO1        -0.7170    -2.7790    -0.4220 hc         1 HX0       0.061700
     54 HAO2         1.0440    -2.6710    -0.4250 hc         1 HX0       0.061700
     55 HAN1         1.1070    -3.6360     1.8890 hc         1 HX0       0.050200
     56 HAN2        -0.6540    -3.7440     1.8920 hc         1 HX0       0.050200
     57 HAM1        -0.5610    -5.3200    -0.0640 hc         1 HX0       0.043200
     58 HAM2         1.2000    -5.2120    -0.0670 hc         1 HX0       0.043200
     59 HAL1         1.2630    -6.1830     2.2500 hc         1 HX0       0.042200
     60 HAL2        -0.4970    -6.2910     2.2530 hc         1 HX0       0.042200
     61 HAK1        -0.4040    -7.8660     0.2970 hc         1 HX0       0.039700
     62 HAK2         1.3570    -7.7580     0.2940 hc         1 HX0       0.039700
     63 HAJ1         1.4200    -8.7330     2.6120 hc         1 HX0       0.039200
     64 HAJ2        -0.3400    -8.8410     2.6150 hc         1 HX0       0.039200
     65 HAI1        -0.2530   -10.4490     0.6780 hc         1 HX0       0.036700
     66 HAI2         1.5230   -10.3410     0.6760 hc         1 HX0       0.036700
     67 HAI3         0.6780   -11.0480     2.0690 hc         1 HX0       0.036700
     68 HBA1        -2.6670    -1.0530     0.4180 hc         1 HX0       0.061700
     69 HBA2        -2.7750     0.7090     0.4170 hc         1 HX0       0.061700
     70 HBB1        -3.7440     0.6480    -1.8950 hc         1 HX0       0.050200
     71 HBB2        -3.6360    -1.1130    -1.8940 hc         1 HX0       0.050200
     72 HBC1        -5.2090    -1.2090     0.0650 hc         1 HX0       0.043200
     73 HBC2        -5.3170     0.5520     0.0640 hc         1 HX0       0.043200
     74 HBD1        -6.2920     0.4900    -2.2520 hc         1 HX0       0.042200
     75 HBD2        -6.1830    -1.2700    -2.2510 hc         1 HX0       0.042200
     76 HBE1        -7.7550    -1.3660    -0.2920 hc         1 HX0       0.039700
     77 HBE2        -7.8630     0.3950    -0.2930 hc         1 HX0       0.039700
     78 HBF1        -8.8430     0.3320    -2.6090 hc         1 HX0       0.039200
     79 HBF2        -8.7340    -1.4280    -2.6080 hc         1 HX0       0.039200
     80 HBG1       -11.0490    -0.6870    -2.0600 hc         1 HX0       0.036700
     81 HBG2       -10.3380    -1.5330    -0.6690 hc         1 HX0       0.036700
     82 HBG3       -10.4480     0.2430    -0.6700 hc         1 HX0       0.036700
     83 HAS1         2.6630     1.0420     0.4100 hc         1 HX0       0.061700
     84 HAS2         2.7710    -0.7200     0.4100 hc         1 HX0       0.061700
     85 HAT1         3.7350    -0.6610    -1.9040 hc         1 HX0       0.050200
     86 HAT2         3.6270     1.1000    -1.9050 hc         1 HX0       0.050200
     87 HAU1         5.2040     1.1970     0.0500 hc         1 HX0       0.043200
     88 HAU2         5.3120    -0.5640     0.0500 hc         1 HX0       0.043200
     89 HAV1         6.2810    -0.5050    -2.2680 hc         1 HX0       0.042200
     90 HAV2         6.1730     1.2550    -2.2680 hc         1 HX0       0.042200
     91 HAW1         7.7500     1.3520    -0.3140 hc         1 HX0       0.039700
     92 HAW2         7.8580    -0.4080    -0.3130 hc         1 HX0       0.039700
     93 HAX1         8.8310    -0.3490    -2.6320 hc         1 HX0       0.039200
     94 HAX2         8.7240     1.4110    -2.6320 hc         1 HX0       0.039200
     95 HAB         -0.9510     1.1190     1.5450 hx         1 HX0       0.088700
     96 HAQ         -0.8060    -1.2360     1.5460 hx         1 HX0       0.088700
     97 HBA         -1.1280    -0.9570    -1.5530 hx         1 HX0       0.088700
     98 HAO          1.1200     0.9440    -1.5560 hx         1 HX0       0.088700
     99 HAY1        10.3320     1.5180    -0.6970 hc         1 HX0       0.036700
    100 HAY2        10.4410    -0.2580    -0.6970 hc         1 HX0       0.036700
    101 HAY3        11.0390     0.6690    -2.0890 hc         1 HX0       0.036700
@<TRIPOS>BOND
     1     1     2 1   
     2     1    34 1   
     3     1    35 1   
     4     1    36 1   
     5     2     3 1   
     6     2    37 1   
     7     2    38 1   
     8     3     4 1   
     9     3    39 1   
    10     3    40 1   
    11     4     5 1   
    12     4    41 1   
    13     4    42 1   
    14     5     6 1   
    15     5    43 1   
    16     5    44 1   
    17     6     7 1   
    18     6    45 1   
    19     6    46 1   
    20     7     8 1   
    21     7    47 1   
    22     7    48 1   
    23     8     9 1   
    24     8    49 1   
    25     8    95 1   
    26     9    10 1   
    27     9    18 1   
    28     9    26 1   
    29    10    11 1   
    30    10    50 1   
    31    10    96 1   
    32    11    12 1   
    33    11    53 1   
    34    11    54 1   
    35    12    13 1   
    36    12    55 1   
    37    12    56 1   
    38    13    14 1   
    39    13    57 1   
    40    13    58 1   
    41    14    15 1   
    42    14    59 1   
    43    14    60 1   
    44    15    16 1   
    45    15    61 1   
    46    15    62 1   
    47    16    17 1   
    48    16    63 1   
    49    16    64 1   
    50    17    65 1   
    51    17    66 1   
    52    17    67 1   
    53    18    19 1   
    54    18    51 1   
    55    18    97 1   
    56    19    20 1   
    57    19    68 1   
    58    19    69 1   
    59    20    21 1   
    60    20    70 1   
    61    20    71 1   
    62    21    22 1   
    63    21    72 1   
    64    21    73 1   
    65    22    23 1   
    66    22    74 1   
    67    22    75 1   
    68    23    24 1   
    69    23    76 1   
    70    23    77 1   
    71    24    25 1   
    72    24    78 1   
    73    24    79 1   
    74    25    80 1   
    75    25    81 1   
    76    25    82 1   
    77    26    27 1   
    78    26    52 1   
    79    26    98 1   
    80    27    28 1   
    81    27    83 1   
    82    27    84 1   
    83    28    29 1   
    84    28    85 1   
    85    28    86 1   
    86    29    30 1   
    87    29    87 1   
    88    29    88 1   
    89    30    31 1   
    90    30    89 1   
    91    30    90 1   
    92    31    32 1   
    93    31    91 1   
    94    31    92 1   
    95    32    33 1   
    96    32    93 1   
    97    32    94 1   
    98    33    99 1   
    99    33   100 1   
   100    33   101 1   
@<TRIPOS>SUBSTRUCTURE
     1 HX0         1 TEMP              0 ****  ****    0 ROOT
