@<TRIPOS>MOLECULE
HX1
   26    26     1     0     0
SMALL
No Charge or Current Charge


@<TRIPOS>ATOM
      1 C01          1.8320    -0.0170    22.4030 c3         1 HX1      -0.086100
      2 C02          3.0000     0.1360    21.4090 c3         1 HX1      -0.077400
      3 C03          2.7870    -0.6590    20.1000 c3         1 HX1      -0.066400
      4 C04          3.9670    -0.5530    19.1070 c3         1 HX1      -0.017100
      5 C05          4.2080     0.8690    18.6090 ca         1 HX1      -0.118300
      6 C06          5.3210     1.6040    19.0560 ca         1 HX1      -0.140000
      7 C07          5.5400     2.9150    18.6000 ca         1 HX1      -0.090000
      8 C08          4.6490     3.5210    17.6830 ca         1 HX1      -0.130600
      9 C09          3.5340     2.7730    17.2380 ca         1 HX1      -0.090000
     10 C10          3.3180     1.4620    17.6970 ca         1 HX1      -0.140000
     11 C11          4.8850     4.9410    17.1880 c          1 HX1       0.712600
     12 O12          4.0890     5.4260    16.3950 o          1 HX1      -0.722500
     13 O13          5.8630     5.5510    17.5980 o          1 HX1      -0.722500
     14 H1           2.0270     0.5640    23.3130 hc         1 HX1       0.023033
     15 H2           0.8960     0.3430    21.9600 hc         1 HX1       0.023033
     16 H3           1.7000    -1.0670    22.6890 hc         1 HX1       0.023033
     17 H4           3.9260    -0.1990    21.8920 hc         1 HX1       0.046700
     18 H5           3.1270     1.2000    21.1760 hc         1 HX1       0.046700
     19 H6           1.8690    -0.3140    19.6100 hc         1 HX1       0.026700
     20 H7           2.6330    -1.7170    20.3470 hc         1 HX1       0.026700
     21 H8           3.7620    -1.2090    18.2510 hc         1 HX1       0.029700
     22 H9           4.8700    -0.9530    19.5830 hc         1 HX1       0.029700
     23 H10          6.0180     1.1610    19.7630 ha         1 HX1       0.082000
     24 H11          6.4080     3.4600    18.9640 ha         1 HX1       0.124000
     25 H12          2.8280     3.2070    16.5330 ha         1 HX1       0.124000
     26 H13          2.4530     0.9070    17.3410 ha         1 HX1       0.082000
@<TRIPOS>BOND
     1     1     2 1   
     2     1    14 1   
     3     1    15 1   
     4     1    16 1   
     5     2     3 1   
     6     2    17 1   
     7     2    18 1   
     8     3     4 1   
     9     3    19 1   
    10     3    20 1   
    11     4     5 1   
    12     4    21 1   
    13     4    22 1   
    14     5     6 ar  
    15     5    10 ar  
    16     6     7 ar  
    17     6    23 1   
    18     7     8 ar  
    19     7    24 1   
    20     8     9 ar  
    21     8    11 1   
    22     9    10 ar  
    23     9    25 1   
    24    10    26 1   
    25    11    12 1   
    26    11    13 1   
@<TRIPOS>SUBSTRUCTURE
     1 HX1         1 TEMP              0 ****  ****    0 ROOT
