@<TRIPOS>MOLECULE
HX1
   26    26     1     0     0
SMALL
abcg2


@<TRIPOS>ATOM
      1 C01          1.8210     0.0090    22.3360 c3         1 HX1      -0.086100
      2 C02          2.9970     0.1570    21.3800 c3         1 HX1      -0.077400
      3 C03          2.8070    -0.6410    20.0970 c3         1 HX1      -0.066400
      4 C04          3.9890    -0.5440    19.1290 c3         1 HX1      -0.017100
      5 C05          4.2300     0.8530    18.6270 ca         1 HX1      -0.118300
      6 C06          5.3420     1.5890    19.0260 ca         1 HX1      -0.140000
      7 C07          5.5440     2.8860    18.5730 ca         1 HX1      -0.090000
      8 C08          4.6380     3.4970    17.7110 ca         1 HX1      -0.130600
      9 C09          3.5220     2.7600    17.3130 ca         1 HX1      -0.090000
     10 C10          3.3240     1.4620    17.7590 ca         1 HX1      -0.140000
     11 C11          4.8580     4.9220    17.2150 c          1 HX1       0.712600
     12 O12          3.9530     5.4130    16.5110 o          1 HX1      -0.722500
     13 O13          5.9240     5.4710    17.5550 o          1 HX1      -0.722500
     14 H1           1.9720     0.5840    23.2500 hc         1 HX1       0.023033
     15 H2           0.8940     0.3570    21.8750 hc         1 HX1       0.023033
     16 H3           1.6720    -1.0340    22.6220 hc         1 HX1       0.023033
     17 H4           3.9170    -0.1680    21.8750 hc         1 HX1       0.046700
     18 H5           3.1390     1.2140    21.1410 hc         1 HX1       0.046700
     19 H6           1.8940    -0.3090    19.5930 hc         1 HX1       0.026700
     20 H7           2.6490    -1.6940    20.3480 hc         1 HX1       0.026700
     21 H8           3.8020    -1.2090    18.2810 hc         1 HX1       0.029700
     22 H9           4.8900    -0.9170    19.6230 hc         1 HX1       0.029700
     23 H10          6.0620     1.1400    19.7010 ha         1 HX1       0.082000
     24 H11          6.4190     3.4340    18.8970 ha         1 HX1       0.124000
     25 H12          2.8030     3.2080    16.6400 ha         1 HX1       0.124000
     26 H13          2.4500     0.9110    17.4260 ha         1 HX1       0.082000
@<TRIPOS>BOND
     1     1     2 1   
     2     1    14 1   
     3     1    15 1   
     4     1    16 1   
     5     2     3 1   
     6     2    17 1   
     7     2    18 1   
     8     3     4 1   
     9     3    19 1   
    10     3    20 1   
    11     4     5 1   
    12     4    21 1   
    13     4    22 1   
    14     5     6 ar  
    15     5    10 ar  
    16     6     7 ar  
    17     6    23 1   
    18     7     8 ar  
    19     7    24 1   
    20     8     9 ar  
    21     8    11 1   
    22     9    10 ar  
    23     9    25 1   
    24    10    26 1   
    25    11    12 1   
    26    11    13 1   
@<TRIPOS>SUBSTRUCTURE
     1 HX1         1 TEMP              0 ****  ****    0 ROOT
