@<TRIPOS>MOLECULE
HX2
   22    21     1     0     0
SMALL
bcc


@<TRIPOS>ATOM
      1 C1           3.1020    -0.7770     0.4220 c3         1 HX2      -0.125100
      2 O1           2.1210     1.1210    -0.7330 oh         1 HX2      -0.596800
      3 C2           1.9540     0.2210     0.3500 c3         1 HX2       0.141100
      4 O2          -2.0920    -1.1770    -0.7260 oh         1 HX2      -0.596800
      5 C3           0.6040    -0.4890     0.3000 c3         1 HX2      -0.105400
      6 C4          -0.5880     0.4610     0.2830 c3         1 HX2      -0.105400
      7 C5          -1.9380    -0.2490     0.3350 c3         1 HX2       0.141100
      8 C6          -3.0870     0.7490     0.3690 c3         1 HX2      -0.125100
      9 H1           4.0650    -0.2680     0.4700 hc         1 HX2       0.041033
     10 H1A          3.0130    -1.4090     1.3060 hc         1 HX2       0.041033
     11 H1B          3.1060    -1.4310    -0.4540 hc         1 HX2       0.041033
     12 HO1          2.0750     0.6130    -1.5500 ho         1 HX2       0.397000
     13 H2           1.9810     0.8500     1.2460 h1         1 HX2       0.068700
     14 H3           0.5760    -1.1470    -0.5760 hc         1 HX2       0.048200
     15 H3A          0.5310    -1.1450     1.1740 hc         1 HX2       0.048200
     16 H4          -0.5250     1.1360     1.1430 hc         1 HX2       0.048200
     17 H4A         -0.5510     1.0990    -0.6070 hc         1 HX2       0.048200
     18 H5          -1.9740    -0.8560     1.2470 h1         1 HX2       0.068700
     19 H6          -4.0510     0.2410     0.4190 hc         1 HX2       0.041033
     20 H6A         -3.0080     1.4050     1.2370 hc         1 HX2       0.041033
     21 H6B         -3.0820     1.3800    -0.5240 hc         1 HX2       0.041033
     22 HO2         -2.0470    -0.6880    -1.5550 ho         1 HX2       0.397000
@<TRIPOS>BOND
     1     1     3 1   
     2     1     9 1   
     3     1    10 1   
     4     1    11 1   
     5     2     3 1   
     6     2    12 1   
     7     3     5 1   
     8     3    13 1   
     9     4     7 1   
    10     4    22 1   
    11     5     6 1   
    12     5    14 1   
    13     5    15 1   
    14     6     7 1   
    15     6    16 1   
    16     6    17 1   
    17     7     8 1   
    18     7    18 1   
    19     8    19 1   
    20     8    20 1   
    21     8    21 1   
@<TRIPOS>SUBSTRUCTURE
     1 HX2         1 TEMP              0 ****  ****    0 ROOT
