@<TRIPOS>MOLECULE
HX2
   22    21     1     0     0
SMALL
No Charge or Current Charge


@<TRIPOS>ATOM
      1 C1           3.1660    -0.7530     0.4700 c3         1 HX2      -0.125100
      2 O1           2.1700     1.0000    -0.8550 oh         1 HX2      -0.659000
      3 C2           1.9870     0.2310     0.3380 c3         1 HX2       0.164300
      4 O2          -2.1420    -1.0580    -0.8520 oh         1 HX2      -0.659000
      5 C3           0.6190    -0.4930     0.2900 c3         1 HX2      -0.105400
      6 C4          -0.6030     0.4630     0.2720 c3         1 HX2      -0.105400
      7 C5          -1.9720    -0.2590     0.3230 c3         1 HX2       0.164300
      8 C6          -3.1520     0.7270     0.4180 c3         1 HX2      -0.125100
      9 H1           4.1190    -0.2110     0.5070 hc         1 HX2       0.041033
     10 H1A          3.0750    -1.3380     1.3930 hc         1 HX2       0.041033
     11 H1B          3.1970    -1.4500    -0.3760 hc         1 HX2       0.041033
     12 HO1          2.1310     0.3710    -1.6070 ho         1 HX2       0.436000
     13 H2           1.9980     0.8920     1.2160 h1         1 HX2       0.068700
     14 H3           0.5870    -1.1520    -0.5870 hc         1 HX2       0.048200
     15 H3A          0.5380    -1.1430     1.1710 hc         1 HX2       0.048200
     16 H4          -0.5320     1.1350     1.1370 hc         1 HX2       0.048200
     17 H4A         -0.5620     1.1000    -0.6200 hc         1 HX2       0.048200
     18 H5          -1.9920    -0.8990     1.2170 h1         1 HX2       0.068700
     19 H6          -4.1050     0.1860     0.4590 hc         1 HX2       0.041033
     20 H6A         -3.0710     1.3350     1.3270 hc         1 HX2       0.041033
     21 H6B         -3.1740     1.4030    -0.4450 hc         1 HX2       0.041033
     22 HO2         -2.0950    -0.4470    -1.6190 ho         1 HX2       0.436000
@<TRIPOS>BOND
     1     1     3 1   
     2     1     9 1   
     3     1    10 1   
     4     1    11 1   
     5     2     3 1   
     6     2    12 1   
     7     3     5 1   
     8     3    13 1   
     9     4     7 1   
    10     4    22 1   
    11     5     6 1   
    12     5    14 1   
    13     5    15 1   
    14     6     7 1   
    15     6    16 1   
    16     6    17 1   
    17     7     8 1   
    18     7    18 1   
    19     8    19 1   
    20     8    20 1   
    21     8    21 1   
@<TRIPOS>SUBSTRUCTURE
     1 HX2         1 TEMP              0 ****  ****    0 ROOT
