@<TRIPOS>MOLECULE
HX3
   16    16     1     0     0
SMALL
bcc


@<TRIPOS>ATOM
      1 C1           0.4040    -0.5190    -0.0440 ca         1 HX3       0.064400
      2 C2           0.9950     0.7350    -0.1250 ca         1 HX3      -0.020600
      3 C3           0.1810     1.8590    -0.0560 ca         1 HX3      -0.075000
      4 C4          -1.1840     1.7340     0.0910 ca         1 HX3      -0.201000
      5 C5          -1.7850     0.4690     0.1760 ca         1 HX3       0.193600
      6 C6          -0.9660    -0.6620     0.1010 ca         1 HX3      -0.161000
      7 CL7          1.3760    -1.9440    -0.1310 cl         1 HX3      -0.089400
      8 CL8          2.7030     0.9140    -0.3130 cl         1 HX3      -0.089400
      9 N9          -3.1370     0.3750     0.3660 nu         1 HX3      -0.550400
     10 N10         -3.7600    -0.8480     0.1690 n8         1 HX3      -0.620600
     11 H1           0.6240     2.8440    -0.1220 ha         1 HX3       0.146000
     12 H2          -1.7960     2.6270     0.1420 ha         1 HX3       0.134000
     13 H3          -1.4020    -1.6480     0.1570 ha         1 HX3       0.170000
     14 H4          -3.6700     1.2040     0.1410 hn         1 HX3       0.401800
     15 H5          -4.4690    -0.9720     0.8780 hn         1 HX3       0.349300
     16 H6          -4.2170    -0.8720    -0.7350 hn         1 HX3       0.349300
@<TRIPOS>BOND
     1     1     2 ar  
     2     1     6 ar  
     3     1     7 1   
     4     2     3 ar  
     5     2     8 1   
     6     3     4 ar  
     7     3    11 1   
     8     4     5 ar  
     9     4    12 1   
    10     5     6 ar  
    11     5     9 1   
    12     6    13 1   
    13     9    10 1   
    14     9    14 1   
    15    10    15 1   
    16    10    16 1   
@<TRIPOS>SUBSTRUCTURE
     1 HX3         1 TEMP              0 ****  ****    0 ROOT
