@<TRIPOS>MOLECULE
HX3
   16    16     1     0     0
SMALL
No Charge or Current Charge


@<TRIPOS>ATOM
      1 C1           0.4540    -0.5280    -0.0570 ca         1 HX3       0.156000
      2 C2           1.0470     0.7510    -0.0810 ca         1 HX3       0.071000
      3 C3           0.2340     1.8950    -0.0280 ca         1 HX3      -0.057000
      4 C4          -1.1650     1.7620     0.0480 ca         1 HX3      -0.183000
      5 C5          -1.7600     0.4880     0.0720 ca         1 HX3       0.332000
      6 C6          -0.9420    -0.6560     0.0190 ca         1 HX3      -0.143000
      7 Cl7          1.4420    -1.9890    -0.1220 cl         1 HX3      -0.181000
      8 Cl8          2.7980     0.9460    -0.1760 cl         1 HX3      -0.181000
      9 N9          -3.1660     0.3920     0.1490 nu         1 HX3      -0.744000
     10 N10         -3.9150    -0.8690     0.1820 n8         1 HX3      -0.731000
     11 H1           0.6870     2.8840    -0.0460 ha         1 HX3       0.128000
     12 H2          -1.7850     2.6530     0.0890 ha         1 HX3       0.116000
     13 H3          -1.3860    -1.6450     0.0370 ha         1 HX3       0.152000
     14 H4          -3.6630     1.3000     0.1830 hn         1 HX3       0.457000
     15 H5          -4.4470    -1.0490     1.0530 hn         1 HX3       0.404500
     16 H6          -4.5400    -1.0380    -0.6270 hn         1 HX3       0.404500
@<TRIPOS>BOND
     1     1     2 ar  
     2     1     6 ar  
     3     1     7 1   
     4     2     3 ar  
     5     2     8 1   
     6     3     4 ar  
     7     3    11 1   
     8     4     5 ar  
     9     4    12 1   
    10     5     6 ar  
    11     5     9 1   
    12     6    13 1   
    13     9    10 1   
    14     9    14 1   
    15    10    15 1   
    16    10    16 1   
@<TRIPOS>SUBSTRUCTURE
     1 HX3         1 TEMP              0 ****  ****    0 ROOT
