@<TRIPOS>MOLECULE
HX4
   21    22     1     0     0
SMALL
abcg2


@<TRIPOS>ATOM
      1 C1          -2.8780     1.3170     0.1790 ca         1 HX4      -0.108000
      2 C2          -3.6560     0.1800     0.0040 ca         1 HX4      -0.102000
      3 C3          -3.0390    -1.0520    -0.1700 ca         1 HX4      -0.108000
      4 C4          -1.6560    -1.1470    -0.1720 ca         1 HX4      -0.095500
      5 C5          -0.8660    -0.0110     0.0110 ca         1 HX4      -0.024000
      6 C6          -1.4950     1.2230     0.1870 ca         1 HX4      -0.095500
      7 C7           0.5920    -0.0890     0.0170 cc         1 HX4      -0.068000
      8 N8           1.2710    -1.2210     0.2730 na         1 HX4      -0.005200
      9 N9           2.6010    -1.0620     0.2280 nc         1 HX4      -0.571800
     10 C10          2.7800     0.2080    -0.0910 cd         1 HX4       0.463900
     11 C11          1.5460     0.8780    -0.2350 cd         1 HX4      -0.256000
     12 N12          4.0400     0.7290    -0.3100 nv         1 HX4      -1.004900
     13 H1          -3.3480     2.2820     0.3200 ha         1 HX4       0.115500
     14 H2          -4.7360     0.2540     0.0010 ha         1 HX4       0.116000
     15 H3          -3.6370    -1.9420    -0.3160 ha         1 HX4       0.115500
     16 H4          -1.1970    -2.1150    -0.3350 ha         1 HX4       0.114000
     17 H5          -0.8990     2.1140     0.3430 ha         1 HX4       0.114000
     18 H6           0.8940    -2.1090     0.5610 hn         1 HX4       0.371000
     19 H7           1.3830     1.9080    -0.5080 ha         1 HX4       0.145000
     20 H8           4.7760     0.1960     0.1310 hn         1 HX4       0.442000
     21 H9           4.1240     1.7040    -0.0700 hn         1 HX4       0.442000
@<TRIPOS>BOND
     1     1     2 ar  
     2     1     6 ar  
     3     1    13 1   
     4     2     3 ar  
     5     2    14 1   
     6     3     4 ar  
     7     3    15 1   
     8     4     5 ar  
     9     4    16 1   
    10     5     6 ar  
    11     5     7 1   
    12     6    17 1   
    13     7     8 1   
    14     7    11 2   
    15     8     9 1   
    16     8    18 1   
    17     9    10 2   
    18    10    11 1   
    19    10    12 1   
    20    11    19 1   
    21    12    20 1   
    22    12    21 1   
@<TRIPOS>SUBSTRUCTURE
     1 HX4         1 TEMP              0 ****  ****    0 ROOT
