@<TRIPOS>MOLECULE
HX4
   21    22     1     0     0
SMALL
No Charge or Current Charge


@<TRIPOS>ATOM
      1 C1          -2.8570     1.3760     0.0060 ca         1 HX4      -0.108000
      2 C2          -3.6720     0.2340     0.0250 ca         1 HX4      -0.102000
      3 C3          -3.0850    -1.0410     0.0260 ca         1 HX4      -0.108000
      4 C4          -1.6850    -1.1730     0.0080 ca         1 HX4      -0.095500
      5 C5          -0.8520    -0.0330    -0.0110 ca         1 HX4      -0.024000
      6 C6          -1.4570     1.2450    -0.0120 ca         1 HX4      -0.095500
      7 C7           0.6090    -0.1930    -0.0290 cc         1 HX4      -0.068000
      8 N8           1.3750    -1.3610    -0.0350 na         1 HX4      -0.005200
      9 N9           2.7460    -1.1120    -0.0530 nc         1 HX4      -0.571800
     10 C10          2.7770     0.1920    -0.0590 cd         1 HX4       0.463900
     11 C11          1.5270     0.8210    -0.0440 cd         1 HX4      -0.256000
     12 N12          3.9510     0.8400    -0.0720 nv         1 HX4      -1.004900
     13 H1          -3.3090     2.3650     0.0060 ha         1 HX4       0.115500
     14 H2          -4.7550     0.3360     0.0390 ha         1 HX4       0.116000
     15 H3          -3.7140    -1.9280     0.0410 ha         1 HX4       0.115500
     16 H4          -1.2540    -2.1710     0.0100 ha         1 HX4       0.114000
     17 H5          -0.8520     2.1470    -0.0260 ha         1 HX4       0.114000
     18 H6           1.0100    -2.3120    -0.0270 hn         1 HX4       0.371000
     19 H7           1.3480     1.8880    -0.0450 ha         1 HX4       0.145000
     20 H8           4.7860     0.2990     0.1300 hn         1 HX4       0.442000
     21 H9           3.9660     1.8260     0.1670 hn         1 HX4       0.442000
@<TRIPOS>BOND
     1     1     2 ar  
     2     1     6 ar  
     3     1    13 1   
     4     2     3 ar  
     5     2    14 1   
     6     3     4 ar  
     7     3    15 1   
     8     4     5 ar  
     9     4    16 1   
    10     5     6 ar  
    11     5     7 1   
    12     6    17 1   
    13     7     8 1   
    14     7    11 2   
    15     8     9 1   
    16     8    18 1   
    17     9    10 2   
    18    10    11 1   
    19    10    12 1   
    20    11    19 1   
    21    12    20 1   
    22    12    21 1   
@<TRIPOS>SUBSTRUCTURE
     1 HX4         1 TEMP              0 ****  ****    0 ROOT
