@<TRIPOS>MOLECULE
HX5
   14    14     1     0     0
SMALL
abcg2


@<TRIPOS>ATOM
      1 C1           1.4320     0.7990     0.0090 ca         1 HX5      -0.215000
      2 C2           1.4500    -0.5870    -0.0240 ca         1 HX5       0.226000
      3 N3           0.3740    -1.3330    -0.0370 nb         1 HX5      -0.177000
      4 C4          -0.7880    -0.6860    -0.0170 ca         1 HX5       0.250300
      5 N5          -0.9430     0.6280     0.0140 nb         1 HX5      -0.177000
      6 C6           0.1600     1.3410     0.0270 ca         1 HX5       0.226000
      7 S7          -2.1830    -1.7280    -0.0360 ss         1 HX5      -0.262300
      8 C8          -3.5450    -0.5490    -0.0100 c3         1 HX5       0.013900
      9 CL9         -0.0250     3.0490     0.0690 cl         1 HX5      -0.137000
     10 CL1          2.9630    -1.4020    -0.0510 cl         1 HX5      -0.137000
     11 H1           2.3270     1.4000     0.0210 ha         1 HX5       0.163000
     12 H2          -3.5280     0.0510     0.8950 h1         1 HX5       0.075367
     13 H3          -3.5260     0.0920    -0.8870 h1         1 HX5       0.075367
     14 H4          -4.4530    -1.1490    -0.0240 h1         1 HX5       0.075367
@<TRIPOS>BOND
     1     1     2 ar  
     2     1     6 ar  
     3     1    11 1   
     4     2     3 ar  
     5     2    10 1   
     6     3     4 ar  
     7     4     5 ar  
     8     4     7 1   
     9     5     6 ar  
    10     6     9 1   
    11     7     8 1   
    12     8    12 1   
    13     8    13 1   
    14     8    14 1   
@<TRIPOS>SUBSTRUCTURE
     1 HX5         1 TEMP              0 ****  ****    0 ROOT
