@<TRIPOS>MOLECULE
HX5
   14    14     1     0     0
SMALL
No Charge or Current Charge


@<TRIPOS>ATOM
      1 C1           1.4640     0.8040     0.0100 ca         1 HX5      -0.215000
      2 C2           1.5350    -0.5960    -0.0240 ca         1 HX5       0.226000
      3 N3           0.4280    -1.3630    -0.0390 nb         1 HX5      -0.177000
      4 C4          -0.7600    -0.7200    -0.0210 ca         1 HX5       0.250300
      5 N5          -0.9310     0.6210     0.0120 nb         1 HX5      -0.177000
      6 C6           0.1840     1.3760     0.0270 ca         1 HX5       0.226000
      7 S7          -2.2200    -1.7580    -0.0420 ss         1 HX5      -0.262300
      8 C8          -3.6370    -0.5670    -0.0090 c3         1 HX5       0.013900
      9 Cl9         -0.0240     3.1190     0.0690 cl         1 HX5      -0.137000
     10 Cl1          3.0870    -1.4190    -0.0480 cl         1 HX5      -0.137000
     11 H1           2.3600     1.4180     0.0220 ha         1 HX5       0.163000
     12 H2          -3.5910     0.0450     0.9000 h1         1 HX5       0.075367
     13 H3          -3.5960     0.0880    -0.8890 h1         1 HX5       0.075367
     14 H4          -4.5840    -1.1210    -0.0200 h1         1 HX5       0.075367
@<TRIPOS>BOND
     1     1     2 ar  
     2     1     6 ar  
     3     1    11 1   
     4     2     3 ar  
     5     2    10 1   
     6     3     4 ar  
     7     4     5 ar  
     8     4     7 1   
     9     5     6 ar  
    10     6     9 1   
    11     7     8 1   
    12     8    12 1   
    13     8    13 1   
    14     8    14 1   
@<TRIPOS>SUBSTRUCTURE
     1 HX5         1 TEMP              0 ****  ****    0 ROOT
