@<TRIPOS>MOLECULE
HX6
   35    36     1     0     0
SMALL
bcc


@<TRIPOS>ATOM
      1 C14         45.3920   -15.1850    -0.7880 ca         1 HX6      -0.129500
      2 C11         46.7760   -13.4330     2.7700 ca         1 HX6      -0.144500
      3 C12         46.0620   -15.7490    -1.8590 ca         1 HX6      -0.086000
      4 C1          45.0690   -13.3610     0.9200 c3         1 HX6       0.003200
      5 S1          47.2740   -15.7290     6.0390 sy         1 HX6       1.265200
      6 O5          46.9350   -17.1430     6.0980 o          1 HX6      -0.613300
      7 N7          46.3200   -14.9900     7.1730 n8         1 HX6      -0.889700
      8 O7          48.6750   -15.3480     6.1470 o          1 HX6      -0.613300
      9 N13         48.2920   -14.8940    -4.5320 ns         1 HX6      -0.461400
     10 O16         47.9510   -16.9530    -3.6690 o          1 HX6      -0.568100
     11 O18         49.0950   -15.3450    -5.5320 oh         1 HX6      -0.375100
     12 C21         45.6050   -13.9340     2.2080 ca         1 HX6      -0.023300
     13 C31         44.9560   -14.9920     2.8410 ca         1 HX6      -0.144500
     14 C32         45.7790   -13.9490    -0.2730 ca         1 HX6      -0.057300
     15 C41         45.4600   -15.5400     4.0090 ca         1 HX6      -0.024500
     16 C42         46.8530   -13.2910    -0.8620 ca         1 HX6      -0.129500
     17 C51         46.6300   -15.0250     4.5480 ca         1 HX6      -0.268500
     18 C52         47.5230   -13.8470    -1.9430 ca         1 HX6      -0.086000
     19 C61         47.2970   -13.9730     3.9350 ca         1 HX6      -0.024500
     20 C62         47.1280   -15.0790    -2.4570 ca         1 HX6      -0.151600
     21 C72         47.8330   -15.7420    -3.5940 c          1 HX6       0.686700
     22 H1          44.5540   -15.7130    -0.3480 ha         1 HX6       0.135000
     23 H2          47.2930   -12.6080     2.2940 ha         1 HX6       0.135500
     24 H3          45.7470   -16.7100    -2.2430 ha         1 HX6       0.143500
     25 H4          45.1930   -12.2770     0.9240 hc         1 HX6       0.061200
     26 H5          44.0000   -13.5640     0.8490 hc         1 HX6       0.061200
     27 H6          46.3580   -15.4770     8.0640 hn         1 HX6       0.416300
     28 H7          46.5560   -14.0110     7.3010 hn         1 HX6       0.416300
     29 H8          48.1690   -13.8920    -4.4960 hn         1 HX6       0.340500
     30 H9          48.5130   -15.5700    -6.2710 ho         1 HX6       0.401000
     31 H10         44.0430   -15.3910     2.4180 ha         1 HX6       0.135500
     32 H11         44.9380   -16.3600     4.4860 ha         1 HX6       0.155500
     33 H12         47.1750   -12.3340    -0.4720 ha         1 HX6       0.135000
     34 H13         48.3690   -13.3130    -2.3570 ha         1 HX6       0.143500
     35 H14         48.2090   -13.5720     4.3540 ha         1 HX6       0.155500
@<TRIPOS>BOND
     1     1     3 ar  
     2     1    14 ar  
     3     1    22 1   
     4     2    12 ar  
     5     2    19 ar  
     6     2    23 1   
     7     3    20 ar  
     8     3    24 1   
     9     4    12 1   
    10     4    14 1   
    11     4    25 1   
    12     4    26 1   
    13     5     6 2   
    14     5     7 1   
    15     5     8 2   
    16     5    17 1   
    17     7    27 1   
    18     7    28 1   
    19     9    11 1   
    20     9    21 1   
    21     9    29 1   
    22    10    21 2   
    23    11    30 1   
    24    12    13 ar  
    25    13    15 ar  
    26    13    31 1   
    27    14    16 ar  
    28    15    17 ar  
    29    15    32 1   
    30    16    18 ar  
    31    16    33 1   
    32    17    19 ar  
    33    18    20 ar  
    34    18    34 1   
    35    19    35 1   
    36    20    21 1   
@<TRIPOS>SUBSTRUCTURE
     1 HX6         1 TEMP              0 ****  ****    0 ROOT
