@<TRIPOS>MOLECULE
HX6
   35    36     1     0     0
SMALL
No Charge or Current Charge


@<TRIPOS>ATOM
      1 C14         45.0950   -15.1210    -0.8750 ca         1 HX6      -0.111500
      2 C11         46.6870   -13.3500     2.8540 ca         1 HX6      -0.126500
      3 C12         45.6960   -15.6660    -2.0220 ca         1 HX6      -0.068000
      4 C1          44.9760   -13.3810     0.9740 c3         1 HX6       0.003200
      5 S1          47.4150   -15.7620     6.0840 sy         1 HX6       1.123600
      6 O5          47.1250   -17.1940     6.1710 o          1 HX6      -0.542500
      7 N7          46.4970   -15.0700     7.2490 n8         1 HX6      -1.000100
      8 O7          48.7460   -15.2060     6.3150 o          1 HX6      -0.542500
      9 N13         48.6340   -15.0940    -4.3080 ns         1 HX6      -0.394400
     10 O16         46.9650   -16.6510    -4.3980 o          1 HX6      -0.568100
     11 O18         49.4410   -15.7420    -5.3230 oh         1 HX6      -0.414100
     12 C21         45.5780   -13.9660     2.2430 ca         1 HX6      -0.023300
     13 C31         45.0390   -15.1350     2.8120 ca         1 HX6      -0.126500
     14 C32         45.6240   -13.9670    -0.2730 ca         1 HX6      -0.057300
     15 C41         45.5960   -15.6830     3.9800 ca         1 HX6      -0.006500
     16 C42         46.7650   -13.3640    -0.8320 ca         1 HX6      -0.111500
     17 C51         46.7050   -15.0620     4.5910 ca         1 HX6      -0.268500
     18 C52         47.3710   -13.9060    -1.9800 ca         1 HX6      -0.068000
     19 C61         47.2500   -13.8920     4.0230 ca         1 HX6      -0.006500
     20 C62         46.8440   -15.0700    -2.5920 ca         1 HX6      -0.151600
     21 C72         47.4670   -15.6870    -3.8320 c          1 HX6       0.619700
     22 H1          44.2150   -15.6020    -0.4530 ha         1 HX6       0.117000
     23 H2          47.1160   -12.4500     2.4220 ha         1 HX6       0.117500
     24 H3          45.2650   -16.5610    -2.4660 ha         1 HX6       0.125500
     25 H4          45.0850   -12.2890     0.9760 hc         1 HX6       0.061200
     26 H5          43.8940   -13.5610     0.9550 hc         1 HX6       0.061200
     27 H6          47.2150   -14.6880     7.8600 hn         1 HX6       0.471500
     28 H7          46.1220   -14.2530     6.7730 hn         1 HX6       0.471500
     29 H8          49.1110   -14.4050    -3.7320 hn         1 HX6       0.340500
     30 H9          49.5900   -15.0310    -5.9910 ho         1 HX6       0.440000
     31 H10         44.1850   -15.6240     2.3480 ha         1 HX6       0.117500
     32 H11         45.1630   -16.5870     4.4060 ha         1 HX6       0.137500
     33 H12         47.1860   -12.4710    -0.3760 ha         1 HX6       0.117000
     34 H13         48.2470   -13.4020    -2.3800 ha         1 HX6       0.125500
     35 H14         48.1080   -13.3990     4.4780 ha         1 HX6       0.137500
@<TRIPOS>BOND
     1     1     3 ar  
     2     1    14 ar  
     3     1    22 1   
     4     2    12 ar  
     5     2    19 ar  
     6     2    23 1   
     7     3    20 ar  
     8     3    24 1   
     9     4    12 1   
    10     4    14 1   
    11     4    25 1   
    12     4    26 1   
    13     5     6 2   
    14     5     7 1   
    15     5     8 2   
    16     5    17 1   
    17     7    27 1   
    18     7    28 1   
    19     9    11 1   
    20     9    21 1   
    21     9    29 1   
    22    10    21 2   
    23    11    30 1   
    24    12    13 ar  
    25    13    15 ar  
    26    13    31 1   
    27    14    16 ar  
    28    15    17 ar  
    29    15    32 1   
    30    16    18 ar  
    31    16    33 1   
    32    17    19 ar  
    33    18    20 ar  
    34    18    34 1   
    35    19    35 1   
    36    20    21 1   
@<TRIPOS>SUBSTRUCTURE
     1 HX6         1 TEMP              0 ****  ****    0 ROOT
