@<TRIPOS>MOLECULE
HX7
   61    62     1     0     0
SMALL
abcg2


@<TRIPOS>ATOM
      1 CAB         -8.4140    -2.8650    -0.8070 c3         1 HX7      -0.384100
      2 SBE         -9.0460    -1.2350    -0.4850 s6         1 HX7       1.191100
      3 OAC        -10.2980    -1.0760    -1.2060 o          1 HX7      -0.526000
      4 OAD         -9.0030    -1.0050     0.9490 o          1 HX7      -0.526000
      5 NAV         -7.9810    -0.1690    -1.1810 nu         1 HX7      -0.878100
      6 CBA         -6.6870    -0.0020    -0.6180 ca         1 HX7       0.192000
      7 CAK         -6.5160     0.8590     0.4630 ca         1 HX7      -0.064000
      8 CAM         -5.2610     1.0660     0.9990 ca         1 HX7      -0.166000
      9 CAJ         -5.5810    -0.6510    -1.1460 ca         1 HX7      -0.064000
     10 CAL         -4.3120    -0.4390    -0.6230 ca         1 HX7      -0.166000
     11 CBB         -4.1440     0.4270     0.4550 ca         1 HX7       0.154100
     12 OAW         -2.9600     0.7150     1.0230 os         1 HX7      -0.324100
     13 CAT         -1.7840     0.1430     0.4860 c3         1 HX7       0.126600
     14 CBC         -0.5900     0.7850     1.1740 c3         1 HX7       0.169300
     15 OAE         -0.5990     0.5880     2.5650 oh         1 HX7      -0.626000
     16 CAU          0.6850     0.2740     0.5080 c3         1 HX7       0.138800
     17 NBD          1.9050     0.8060     1.0830 n3         1 HX7      -0.719600
     18 CAR          1.9900     2.2590     1.0510 c3         1 HX7       0.160800
     19 CAP          1.8720     2.9270    -0.3200 c3         1 HX7      -0.113400
     20 CAO          2.0620     4.4360    -0.2330 c3         1 HX7      -0.072400
     21 CAA          1.8920     5.1310    -1.5770 c3         1 HX7      -0.089100
     22 CAS          3.0670     0.1300     0.5370 c3         1 HX7       0.174800
     23 CAQ          4.3390     0.3540     1.3570 c3         1 HX7      -0.035100
     24 CAX          5.4460    -0.5330     0.8660 ca         1 HX7      -0.071300
     25 CAN          6.2810    -0.1140    -0.1640 ca         1 HX7      -0.097000
     26 CAZ          7.2800    -0.9430    -0.6510 ca         1 HX7       0.120000
     27 CL1          8.2970    -0.3810    -1.9250 cl         1 HX7      -0.173000
     28 CAY          7.4580    -2.2110    -0.1120 ca         1 HX7       0.117000
     29 CL2          8.6980    -3.2540    -0.7010 cl         1 HX7      -0.172000
     30 CAI          6.6300    -2.6400     0.9140 ca         1 HX7      -0.095000
     31 CAH          5.6340    -1.8070     1.3950 ca         1 HX7      -0.099000
     32 H1          -8.3700    -3.0240    -1.8820 h1         1 HX7       0.101700
     33 H2          -7.4240    -2.9670    -0.3670 h1         1 HX7       0.101700
     34 H3          -9.0940    -3.5830    -0.3520 h1         1 HX7       0.101700
     35 H4          -8.0160    -0.2010    -2.1950 hn         1 HX7       0.487000
     36 H5          -7.3680     1.3840     0.8730 ha         1 HX7       0.125500
     37 H6          -5.1340     1.7410     1.8360 ha         1 HX7       0.128500
     38 H7          -5.6980    -1.3270    -1.9840 ha         1 HX7       0.125500
     39 H8          -3.4760    -0.9600    -1.0700 ha         1 HX7       0.128500
     40 H9          -1.7810    -0.9450     0.6360 h1         1 HX7       0.037200
     41 H10         -1.7180     0.3310    -0.5910 h1         1 HX7       0.037200
     42 H11         -0.6770     1.8670     1.0240 h1         1 HX7       0.087700
     43 H12         -0.3000    -0.3080     2.7520 ho         1 HX7       0.443000
     44 H13          0.7160    -0.8170     0.6160 h1         1 HX7       0.033700
     45 H14          0.6040     0.4610    -0.5750 h1         1 HX7       0.033700
     46 H16          1.2210     2.6690     1.7120 h1         1 HX7       0.058700
     47 H17          2.9370     2.5540     1.5100 h1         1 HX7       0.058700
     48 H18          2.6100     2.5070    -1.0110 hc         1 HX7       0.037700
     49 H19          0.8910     2.7140    -0.7560 hc         1 HX7       0.037700
     50 H20          1.3480     4.8500     0.4860 hc         1 HX7       0.039200
     51 H21          3.0560     4.6530     0.1690 hc         1 HX7       0.039200
     52 H22          2.6080     4.7530    -2.3090 hc         1 HX7       0.033033
     53 H23          0.8910     4.9680    -1.9810 hc         1 HX7       0.033033
     54 H24          2.0430     6.2080    -1.4930 hc         1 HX7       0.033033
     55 H25          2.8540    -0.9420     0.5400 h1         1 HX7       0.033200
     56 H26          3.2660     0.3940    -0.5140 h1         1 HX7       0.033200
     57 H27          4.6620     1.3950     1.3010 hc         1 HX7       0.060700
     58 H28          4.1260     0.1390     2.4070 hc         1 HX7       0.060700
     59 H29          6.1580     0.8740    -0.5920 ha         1 HX7       0.131000
     60 H30          6.7690    -3.6250     1.3370 ha         1 HX7       0.133000
     61 H31          4.9990    -2.1570     2.1990 ha         1 HX7       0.123000
@<TRIPOS>BOND
     1     1     2 1   
     2     1    32 1   
     3     1    33 1   
     4     1    34 1   
     5     2     3 2   
     6     2     4 2   
     7     2     5 1   
     8     5     6 1   
     9     5    35 1   
    10     6     7 ar  
    11     6     9 ar  
    12     7     8 ar  
    13     7    36 1   
    14     8    11 ar  
    15     8    37 1   
    16     9    10 ar  
    17     9    38 1   
    18    10    11 ar  
    19    10    39 1   
    20    11    12 1   
    21    12    13 1   
    22    13    14 1   
    23    13    40 1   
    24    13    41 1   
    25    14    15 1   
    26    14    16 1   
    27    14    42 1   
    28    15    43 1   
    29    16    17 1   
    30    16    44 1   
    31    16    45 1   
    32    17    18 1   
    33    17    22 1   
    34    18    19 1   
    35    18    46 1   
    36    18    47 1   
    37    19    20 1   
    38    19    48 1   
    39    19    49 1   
    40    20    21 1   
    41    20    50 1   
    42    20    51 1   
    43    21    52 1   
    44    21    53 1   
    45    21    54 1   
    46    22    23 1   
    47    22    55 1   
    48    22    56 1   
    49    23    24 1   
    50    23    57 1   
    51    23    58 1   
    52    24    25 ar  
    53    24    31 ar  
    54    25    26 ar  
    55    25    59 1   
    56    26    27 1   
    57    26    28 ar  
    58    28    29 1   
    59    28    30 ar  
    60    30    31 ar  
    61    30    60 1   
    62    31    61 1   
@<TRIPOS>SUBSTRUCTURE
     1 HX7         1 TEMP              0 ****  ****    0 ROOT
