@<TRIPOS>MOLECULE
HX7
   61    62     1     0     0
SMALL
No Charge or Current Charge


@<TRIPOS>ATOM
      1 CAB         -9.4000    -2.0440     0.8960 c3         1 HX7      -0.384100
      2 SBE         -9.6350    -1.1730    -0.6400 s6         1 HX7       1.191100
      3 OAC        -10.4940    -1.9750    -1.5120 o          1 HX7      -0.526000
      4 OAD         -9.9540     0.2300    -0.3660 o          1 HX7      -0.526000
      5 NAV         -8.1430    -1.1890    -1.3760 nu         1 HX7      -0.878100
      6 CBA         -6.8980    -0.7500    -0.9100 ca         1 HX7       0.192000
      7 CAK         -6.7590     0.1800     0.1430 ca         1 HX7      -0.064000
      8 CAM         -5.4820     0.5870     0.5720 ca         1 HX7      -0.166000
      9 CAJ         -5.7360    -1.2510    -1.5270 ca         1 HX7      -0.064000
     10 CAL         -4.4570    -0.8450    -1.1010 ca         1 HX7      -0.166000
     11 CBB         -4.3280     0.0790    -0.0430 ca         1 HX7       0.154100
     12 OAW         -3.1040     0.5160     0.4200 os         1 HX7      -0.324100
     13 CAT         -1.8600     0.0560    -0.1440 c3         1 HX7       0.126600
     14 CBC         -0.6870     0.7430     0.6000 c3         1 HX7       0.169300
     15 OAE         -0.6080     0.3120     1.9690 oh         1 HX7      -0.626000
     16 CAU          0.6880     0.4360    -0.0470 c3         1 HX7       0.138800
     17 NBD          1.8570     0.7620     0.8270 n3         1 HX7      -0.719600
     18 CAR          1.9810     2.2120     1.1740 c3         1 HX7       0.160800
     19 CAP          2.3250     3.1530    -0.0070 c3         1 HX7      -0.113400
     20 CAO          2.4340     4.6320     0.4230 c3         1 HX7      -0.072400
     21 CAA          2.7790     5.5760    -0.7460 c3         1 HX7      -0.089100
     22 CAS          3.1100     0.1360     0.3220 c3         1 HX7       0.174800
     23 CAQ          4.3240     0.2250     1.2740 c3         1 HX7      -0.035100
     24 CAX          5.5090    -0.5810     0.7580 ca         1 HX7      -0.071300
     25 CAN          6.3560    -0.0390    -0.2280 ca         1 HX7      -0.097000
     26 CAZ          7.4480    -0.7790    -0.7130 ca         1 HX7       0.120000
     27 Cl1          8.4850    -0.0650    -1.9490 cl         1 HX7      -0.173000
     28 CAY          7.6990    -2.0730    -0.2110 ca         1 HX7       0.117000
     29 Cl2          9.0610    -3.0310    -0.7960 cl         1 HX7      -0.172000
     30 CAI          6.8550    -2.6170     0.7720 ca         1 HX7      -0.095000
     31 CAH          5.7630    -1.8740     1.2550 ca         1 HX7      -0.099000
     32 H1          -9.0380    -3.0480     0.6540 h1         1 HX7       0.101700
     33 H2          -8.6670    -1.4900     1.4880 h1         1 HX7       0.101700
     34 H3         -10.3700    -2.0830     1.4010 h1         1 HX7       0.101700
     35 H4          -8.1730    -1.9390    -2.0550 hn         1 HX7       0.487000
     36 H5          -7.6300     0.5990     0.6360 ha         1 HX7       0.125500
     37 H6          -5.3870     1.3030     1.3840 ha         1 HX7       0.128500
     38 H7          -5.8220    -1.9630    -2.3440 ha         1 HX7       0.125500
     39 H8          -3.5860    -1.2570    -1.6010 ha         1 HX7       0.128500
     40 H9          -1.7670    -1.0340    -0.0480 h1         1 HX7       0.037200
     41 H10         -1.8070     0.3160    -1.2100 h1         1 HX7       0.037200
     42 H11         -0.8460     1.8290     0.5550 h1         1 HX7       0.087700
     43 H12          0.3660     0.3010     2.1350 ho         1 HX7       0.443000
     44 H13          0.7050    -0.6380    -0.2790 h1         1 HX7       0.033700
     45 H14          0.7600     0.9620    -1.0080 h1         1 HX7       0.033700
     46 H16          1.0470     2.5700     1.6270 h1         1 HX7       0.058700
     47 H17          2.7450     2.3450     1.9510 h1         1 HX7       0.058700
     48 H18          3.2760     2.8480    -0.4580 hc         1 HX7       0.037700
     49 H19          1.5560     3.0690    -0.7830 hc         1 HX7       0.037700
     50 H20          1.4860     4.9530     0.8720 hc         1 HX7       0.039200
     51 H21          3.2050     4.7300     1.1980 hc         1 HX7       0.039200
     52 H22          3.7420     5.3030    -1.1940 hc         1 HX7       0.033033
     53 H23          2.0080     5.5270    -1.5240 hc         1 HX7       0.033033
     54 H24          2.8470     6.6120    -0.3930 hc         1 HX7       0.033033
     55 H25          2.9240    -0.9310     0.1410 h1         1 HX7       0.033200
     56 H26          3.3880     0.5710    -0.6470 h1         1 HX7       0.033200
     57 H27          4.6230     1.2720     1.3940 hc         1 HX7       0.060700
     58 H28          4.0230    -0.1300     2.2670 hc         1 HX7       0.060700
     59 H29          6.1680     0.9570    -0.6220 ha         1 HX7       0.131000
     60 H30          7.0470    -3.6140     1.1590 ha         1 HX7       0.133000
     61 H31          5.1140    -2.3060     2.0140 ha         1 HX7       0.123000
@<TRIPOS>BOND
     1     1     2 1   
     2     1    32 1   
     3     1    33 1   
     4     1    34 1   
     5     2     3 2   
     6     2     4 2   
     7     2     5 1   
     8     5     6 1   
     9     5    35 1   
    10     6     7 ar  
    11     6     9 ar  
    12     7     8 ar  
    13     7    36 1   
    14     8    11 ar  
    15     8    37 1   
    16     9    10 ar  
    17     9    38 1   
    18    10    11 ar  
    19    10    39 1   
    20    11    12 1   
    21    12    13 1   
    22    13    14 1   
    23    13    40 1   
    24    13    41 1   
    25    14    15 1   
    26    14    16 1   
    27    14    42 1   
    28    15    43 1   
    29    16    17 1   
    30    16    44 1   
    31    16    45 1   
    32    17    18 1   
    33    17    22 1   
    34    18    19 1   
    35    18    46 1   
    36    18    47 1   
    37    19    20 1   
    38    19    48 1   
    39    19    49 1   
    40    20    21 1   
    41    20    50 1   
    42    20    51 1   
    43    21    52 1   
    44    21    53 1   
    45    21    54 1   
    46    22    23 1   
    47    22    55 1   
    48    22    56 1   
    49    23    24 1   
    50    23    57 1   
    51    23    58 1   
    52    24    25 ar  
    53    24    31 ar  
    54    25    26 ar  
    55    25    59 1   
    56    26    27 1   
    57    26    28 ar  
    58    28    29 1   
    59    28    30 ar  
    60    30    31 ar  
    61    30    60 1   
    62    31    61 1   
@<TRIPOS>SUBSTRUCTURE
     1 HX7         1 TEMP              0 ****  ****    0 ROOT
