@<TRIPOS>MOLECULE
HX8
   24    25     1     0     0
SMALL
abcg2


@<TRIPOS>ATOM
      1 C1          -2.6820    -1.7200     0.0160 ca         1 HX8      -0.078000
      2 C2          -3.9420    -1.1420     0.0010 ca         1 HX8      -0.144000
      3 C3          -4.0500     0.2440    -0.0110 ca         1 HX8      -0.078000
      4 C4          -2.9170     1.0410    -0.0090 ca         1 HX8      -0.162000
      5 C5          -1.6560     0.4490     0.0060 ca         1 HX8       0.134100
      6 C6          -1.5330    -0.9360     0.0190 ca         1 HX8      -0.162000
      7 O7          -0.5960     1.3040     0.0130 os         1 HX8      -0.251200
      8 C8           0.6790     0.7880    -0.0300 ca         1 HX8       0.056100
      9 C9           1.2810     0.5320    -1.2530 ca         1 HX8      -0.076500
     10 C10          2.5780     0.0500    -1.2990 ca         1 HX8      -0.169000
     11 C11          3.2810    -0.1830    -0.1180 ca         1 HX8       0.140100
     12 C12          2.6710     0.0790     1.1050 ca         1 HX8      -0.169000
     13 C13          1.3700     0.5600     1.1480 ca         1 HX8      -0.076500
     14 O14          4.5400    -0.6550    -0.2180 oh         1 HX8      -0.531100
     15 H1          -2.5790    -2.7970     0.0250 ha         1 HX8       0.112500
     16 H2          -4.8280    -1.7620    -0.0020 ha         1 HX8       0.115000
     17 H3          -5.0260     0.7130    -0.0240 ha         1 HX8       0.112500
     18 H4          -3.0030     2.1200    -0.0190 ha         1 HX8       0.125500
     19 H5          -0.5630    -1.4130     0.0330 ha         1 HX8       0.125500
     20 H6           0.7420     0.7140    -2.1740 ha         1 HX8       0.130000
     21 H7           3.0490    -0.1470    -2.2540 ha         1 HX8       0.125000
     22 H8           3.2060    -0.0920     2.0320 ha         1 HX8       0.125000
     23 H9           0.9020     0.7620     2.1030 ha         1 HX8       0.130000
     24 H10          4.9180    -0.7970     0.6560 ho         1 HX8       0.466000
@<TRIPOS>BOND
     1     1     2 ar  
     2     1     6 ar  
     3     1    15 1   
     4     2     3 ar  
     5     2    16 1   
     6     3     4 ar  
     7     3    17 1   
     8     4     5 ar  
     9     4    18 1   
    10     5     6 ar  
    11     5     7 1   
    12     6    19 1   
    13     7     8 1   
    14     8     9 ar  
    15     8    13 ar  
    16     9    10 ar  
    17     9    20 1   
    18    10    11 ar  
    19    10    21 1   
    20    11    12 ar  
    21    11    14 1   
    22    12    13 ar  
    23    12    22 1   
    24    13    23 1   
    25    14    24 1   
@<TRIPOS>SUBSTRUCTURE
     1 HX8         1 TEMP              0 ****  ****    0 ROOT
