@<TRIPOS>MOLECULE
HX8
   24    25     1     0     0
SMALL
No Charge or Current Charge


@<TRIPOS>ATOM
      1 C1          -2.8680    -1.7710    -0.2250 ca         1 HX8      -0.078000
      2 C2          -4.0210    -1.0280    -0.5320 ca         1 HX8      -0.144000
      3 C3          -4.0200     0.3700    -0.3830 ca         1 HX8      -0.078000
      4 C4          -2.8600     1.0260     0.0680 ca         1 HX8      -0.162000
      5 C5          -1.7020     0.2870     0.3630 ca         1 HX8       0.134100
      6 C6          -1.7090    -1.1150     0.2260 ca         1 HX8      -0.162000
      7 O7          -0.5850     0.9530     0.8150 os         1 HX8      -0.251200
      8 C8           0.6960     0.6000     0.4530 ca         1 HX8       0.056100
      9 C9           0.9920     0.1720    -0.8580 ca         1 HX8      -0.076500
     10 C10          2.3130    -0.1670    -1.2030 ca         1 HX8      -0.169000
     11 C11          3.3370    -0.0730    -0.2480 ca         1 HX8       0.140100
     12 C12          3.0470     0.3650     1.0550 ca         1 HX8      -0.169000
     13 C13          1.7260     0.7060     1.4040 ca         1 HX8      -0.076500
     14 O14          4.6120    -0.4040    -0.5950 oh         1 HX8      -0.531100
     15 H1          -2.8740    -2.8540    -0.3340 ha         1 HX8       0.112500
     16 H2          -4.9180    -1.5350    -0.8800 ha         1 HX8       0.115000
     17 H3          -4.9140     0.9440    -0.6160 ha         1 HX8       0.112500
     18 H4          -2.8570     2.1060     0.1860 ha         1 HX8       0.125500
     19 H5          -0.8240    -1.6950     0.4730 ha         1 HX8       0.125500
     20 H6           0.2050     0.1080    -1.6070 ha         1 HX8       0.130000
     21 H7           2.5420    -0.5000    -2.2130 ha         1 HX8       0.125000
     22 H8           3.8350     0.4460     1.8000 ha         1 HX8       0.125000
     23 H9           1.4990     1.0480     2.4110 ha         1 HX8       0.130000
     24 H10          5.1910    -0.2770     0.1880 ho         1 HX8       0.466000
@<TRIPOS>BOND
     1     1     2 ar  
     2     1     6 ar  
     3     1    15 1   
     4     2     3 ar  
     5     2    16 1   
     6     3     4 ar  
     7     3    17 1   
     8     4     5 ar  
     9     4    18 1   
    10     5     6 ar  
    11     5     7 1   
    12     6    19 1   
    13     7     8 1   
    14     8     9 ar  
    15     8    13 ar  
    16     9    10 ar  
    17     9    20 1   
    18    10    11 ar  
    19    10    21 1   
    20    11    12 ar  
    21    11    14 1   
    22    12    13 ar  
    23    12    22 1   
    24    13    23 1   
    25    14    24 1   
@<TRIPOS>SUBSTRUCTURE
     1 HX8         1 TEMP              0 ****  ****    0 ROOT
