@<TRIPOS>MOLECULE
HXA
   55    54     1     0     0
SMALL
No Charge or Current Charge


@<TRIPOS>ATOM
      1 C1          -1.2050     1.2170    -8.9440 c          1 HXA       0.716000
      2 O1          -1.0500     1.3520   -10.1480 o          1 HXA      -0.741000
      3 O2          -2.1940     0.7040    -8.4440 o          1 HXA      -0.741000
      4 C2          -0.0640     1.6610    -8.0110 c3         1 HXA      -0.201400
      5 C3           0.9280     0.4960    -7.7910 c3         1 HXA      -0.038200
      6 C4           2.0860     0.8890    -6.8910 c2         1 HXA      -0.169200
      7 C5           2.1700     0.7440    -5.5560 c2         1 HXA      -0.276200
      8 C6           1.1160     0.1870    -4.6160 c3         1 HXA      -0.006000
      9 C7           1.6380    -1.0370    -3.8860 c2         1 HXA      -0.178200
     10 C8           1.3120    -1.4410    -2.6450 c2         1 HXA      -0.253200
     11 C9           0.3310    -0.7790    -1.6940 c3         1 HXA      -0.008000
     12 C10         -0.4880    -1.8180    -0.9490 c2         1 HXA      -0.192200
     13 C11         -0.9190    -1.7540     0.3240 c2         1 HXA      -0.236200
     14 C12         -0.7050    -0.6190     1.3090 c3         1 HXA      -0.010000
     15 C13         -1.9330    -0.4140     2.1770 c2         1 HXA      -0.200200
     16 C14         -1.9620    -0.0740     3.4780 c2         1 HXA      -0.228200
     17 C15         -0.7730     0.2050     4.3790 c3         1 HXA      -0.010000
     18 C16         -1.0850     1.3210     5.3600 c2         1 HXA      -0.205200
     19 C17         -0.7210     1.3900     6.6530 c2         1 HXA      -0.222200
     20 C18          0.1050     0.3780     7.4260 c3         1 HXA      -0.011000
     21 C19          0.9390     1.0650     8.4920 c2         1 HXA      -0.209200
     22 C20          0.9120     0.8470     9.8200 c2         1 HXA      -0.223200
     23 C21          0.0150    -0.1150    10.5760 c3         1 HXA      -0.043200
     24 C22          0.6440    -1.5130    10.7120 c3         1 HXA      -0.085100
     25 H21         -0.4550     1.9120    -7.0170 hc         1 HXA       0.017700
     26 H22          0.5190     2.4670    -8.4730 hc         1 HXA       0.017700
     27 H31          1.3160     0.1630    -8.7620 hc         1 HXA       0.050200
     28 H32          0.3880    -0.3650    -7.3780 hc         1 HXA       0.050200
     29 H4           2.9280     1.3220    -7.4340 ha         1 HXA       0.151000
     30 H5           3.0760     1.0700    -5.0430 ha         1 HXA       0.145000
     31 H61          0.1980    -0.0750    -5.1530 hc         1 HXA       0.050700
     32 H62          0.8300     0.9680    -3.9010 hc         1 HXA       0.050700
     33 H7           2.3570    -1.6180    -4.4670 ha         1 HXA       0.172000
     34 H8           1.7780    -2.3400    -2.2390 ha         1 HXA       0.158000
     35 H91         -0.3490    -0.1120    -2.2360 hc         1 HXA       0.048200
     36 H92          0.8880    -0.1490    -0.9910 hc         1 HXA       0.048200
     37 H10         -0.7270    -2.6990    -1.5500 ha         1 HXA       0.171000
     38 H11         -1.4920    -2.5880     0.7330 ha         1 HXA       0.163000
     39 H121        -0.4820     0.3170     0.7820 hc         1 HXA       0.049700
     40 H122         0.1730    -0.8430     1.9250 hc         1 HXA       0.049700
     41 H13         -2.8750    -0.5740     1.6470 ha         1 HXA       0.169000
     42 H14         -2.9260     0.0270     3.9810 ha         1 HXA       0.164000
     43 H151         0.1050     0.4890     3.7870 hc         1 HXA       0.050200
     44 H152        -0.5030    -0.7150     4.9090 hc         1 HXA       0.050200
     45 H16         -1.6740     2.1320     4.9270 ha         1 HXA       0.169000
     46 H17         -1.0260     2.2530     7.2480 ha         1 HXA       0.166000
     47 H181         0.7740    -0.1690     6.7510 hc         1 HXA       0.049700
     48 H182        -0.5590    -0.3750     7.8630 hc         1 HXA       0.049700
     49 H19          1.6390     1.7980     8.0860 ha         1 HXA       0.168000
     50 H20          1.5860     1.4130    10.4670 ha         1 HXA       0.163000
     51 H211        -0.9600    -0.2100    10.0840 hc         1 HXA       0.042700
     52 H212        -0.1940     0.2820    11.5770 hc         1 HXA       0.042700
     53 H221        -0.0240    -2.1810    11.2690 hc         1 HXA       0.031700
     54 H222         0.8260    -1.9530     9.7240 hc         1 HXA       0.031700
     55 H223         1.5990    -1.4560    11.2480 hc         1 HXA       0.031700
@<TRIPOS>BOND
     1     1     2 1   
     2     1     3 1   
     3     1     4 1   
     4     4     5 1   
     5     4    25 1   
     6     4    26 1   
     7     5     6 1   
     8     5    27 1   
     9     5    28 1   
    10     6     7 2   
    11     6    29 1   
    12     7     8 1   
    13     7    30 1   
    14     8     9 1   
    15     8    31 1   
    16     8    32 1   
    17     9    10 2   
    18     9    33 1   
    19    10    11 1   
    20    10    34 1   
    21    11    12 1   
    22    11    35 1   
    23    11    36 1   
    24    12    13 2   
    25    12    37 1   
    26    13    14 1   
    27    13    38 1   
    28    14    15 1   
    29    14    39 1   
    30    14    40 1   
    31    15    16 2   
    32    15    41 1   
    33    16    17 1   
    34    16    42 1   
    35    17    18 1   
    36    17    43 1   
    37    17    44 1   
    38    18    19 2   
    39    18    45 1   
    40    19    20 1   
    41    19    46 1   
    42    20    21 1   
    43    20    47 1   
    44    20    48 1   
    45    21    22 2   
    46    21    49 1   
    47    22    23 1   
    48    22    50 1   
    49    23    24 1   
    50    23    51 1   
    51    23    52 1   
    52    24    53 1   
    53    24    54 1   
    54    24    55 1   
@<TRIPOS>SUBSTRUCTURE
     1 HXA         1 TEMP              0 ****  ****    0 ROOT
