@<TRIPOS>MOLECULE
HXA
   55    54     1     0     0
SMALL
bcc


@<TRIPOS>ATOM
      1 C1           0.5450    -0.4670   -10.2290 c          1 HXA       0.926600
      2 O1           1.7230    -0.8600   -10.1250 o          1 HXA      -0.846300
      3 O2          -0.2290    -0.6950   -11.1840 o          1 HXA      -0.846300
      4 C2          -0.0330     0.3910    -9.0900 c3         1 HXA      -0.201400
      5 C3           0.8740     0.5800    -7.8780 c3         1 HXA      -0.038200
      6 C4           0.2840     1.5390    -6.8930 c2         1 HXA      -0.119200
      7 C5          -0.0690     1.3120    -5.6280 c2         1 HXA      -0.226200
      8 C6           0.0670     0.0300    -4.8570 c3         1 HXA      -0.006000
      9 C7           1.1680     0.1440    -3.8420 c2         1 HXA      -0.128200
     10 C8           1.0430     0.2550    -2.5210 c2         1 HXA      -0.203200
     11 C9          -0.2270     0.2560    -1.7180 c3         1 HXA      -0.008000
     12 C10         -0.3290    -0.9940    -0.8900 c2         1 HXA      -0.142200
     13 C11         -0.1380    -1.1080     0.4230 c2         1 HXA      -0.186200
     14 C12          0.1930    -0.0090     1.3920 c3         1 HXA      -0.010000
     15 C13         -0.9680     0.2620     2.3040 c2         1 HXA      -0.150200
     16 C14         -1.0370     0.0540     3.6180 c2         1 HXA      -0.178200
     17 C15          0.0430    -0.4730     4.5190 c3         1 HXA      -0.010000
     18 C16          0.5420     0.6130     5.4290 c2         1 HXA      -0.155200
     19 C17          0.4100     0.6920     6.7520 c2         1 HXA      -0.172200
     20 C18         -0.2370    -0.3020     7.6720 c3         1 HXA      -0.011000
     21 C19          0.7760    -0.8880     8.6150 c2         1 HXA      -0.159200
     22 C20          0.8920    -0.6510     9.9210 c2         1 HXA      -0.173200
     23 C21          0.0270     0.2280    10.7700 c3         1 HXA      -0.043200
     24 C22         -0.7730    -0.5780    11.7930 c3         1 HXA      -0.085100
     25 H21         -0.9850    -0.0480    -8.7720 hc         1 HXA       0.017700
     26 H22         -0.2980     1.3710    -9.5050 hc         1 HXA       0.017700
     27 H31          1.8370     0.9750    -8.2140 hc         1 HXA       0.050200
     28 H32          1.0890    -0.3860    -7.4170 hc         1 HXA       0.050200
     29 H4           0.1150     2.5420    -7.2790 ha         1 HXA       0.101000
     30 H5          -0.4810     2.1420    -5.0590 ha         1 HXA       0.095000
     31 H61          0.2840    -0.8030    -5.5290 hc         1 HXA       0.050700
     32 H62         -0.8850    -0.2040    -4.3750 hc         1 HXA       0.050700
     33 H7           2.1710     0.1670    -4.2580 ha         1 HXA       0.122000
     34 H8           1.9520     0.3390    -1.9310 ha         1 HXA       0.108000
     35 H91         -1.1000     0.3240    -2.3710 hc         1 HXA       0.048200
     36 H92         -0.2450     1.1440    -1.0830 hc         1 HXA       0.048200
     37 H10         -0.5580    -1.8960    -1.4490 ha         1 HXA       0.121000
     38 H11         -0.2470    -2.0930     0.8680 ha         1 HXA       0.113000
     39 H121         0.4530     0.9100     0.8610 hc         1 HXA       0.049700
     40 H122         1.0800    -0.2920     1.9620 hc         1 HXA       0.049700
     41 H13         -1.8500     0.6580     1.8100 ha         1 HXA       0.119000
     42 H14         -1.9630     0.3140     4.1220 ha         1 HXA       0.114000
     43 H151         0.8790    -0.8670     3.9370 hc         1 HXA       0.050200
     44 H152        -0.3540    -1.3120     5.0940 hc         1 HXA       0.050200
     45 H16          1.0430     1.4320     4.9220 ha         1 HXA       0.119000
     46 H17          0.8270     1.5630     7.2480 ha         1 HXA       0.116000
     47 H181        -0.7050    -1.1100     7.1050 hc         1 HXA       0.049700
     48 H182        -1.0400     0.1910     8.2250 hc         1 HXA       0.049700
     49 H19          1.4950    -1.5580     8.1530 ha         1 HXA       0.118000
     50 H20          1.6910    -1.1610    10.4530 ha         1 HXA       0.113000
     51 H211        -0.6510     0.8250    10.1580 hc         1 HXA       0.042700
     52 H212         0.6650     0.9410    11.3020 hc         1 HXA       0.042700
     53 H221        -1.3600     0.0780    12.4370 hc         1 HXA       0.031700
     54 H222        -1.4600    -1.2650    11.2970 hc         1 HXA       0.031700
     55 H223        -0.1160    -1.1690    12.4320 hc         1 HXA       0.031700
@<TRIPOS>BOND
     1     1     2 1   
     2     1     3 1   
     3     1     4 1   
     4     4     5 1   
     5     4    25 1   
     6     4    26 1   
     7     5     6 1   
     8     5    27 1   
     9     5    28 1   
    10     6     7 2   
    11     6    29 1   
    12     7     8 1   
    13     7    30 1   
    14     8     9 1   
    15     8    31 1   
    16     8    32 1   
    17     9    10 2   
    18     9    33 1   
    19    10    11 1   
    20    10    34 1   
    21    11    12 1   
    22    11    35 1   
    23    11    36 1   
    24    12    13 2   
    25    12    37 1   
    26    13    14 1   
    27    13    38 1   
    28    14    15 1   
    29    14    39 1   
    30    14    40 1   
    31    15    16 2   
    32    15    41 1   
    33    16    17 1   
    34    16    42 1   
    35    17    18 1   
    36    17    43 1   
    37    17    44 1   
    38    18    19 2   
    39    18    45 1   
    40    19    20 1   
    41    19    46 1   
    42    20    21 1   
    43    20    47 1   
    44    20    48 1   
    45    21    22 2   
    46    21    49 1   
    47    22    23 1   
    48    22    50 1   
    49    23    24 1   
    50    23    51 1   
    51    23    52 1   
    52    24    53 1   
    53    24    54 1   
    54    24    55 1   
@<TRIPOS>SUBSTRUCTURE
     1 HXA         1 TEMP              0 ****  ****    0 ROOT
