@<TRIPOS>MOLECULE
HXD
   38    37     1     0     0
SMALL
No Charge or Current Charge


@<TRIPOS>ATOM
      1 C11          7.1420    -0.5440    -0.1970 c3         1 HXD      -0.075400
      2 C10          5.8920     0.3440    -0.0060 c3         1 HXD      -0.075400
      3 C12          8.4630     0.2380    -0.0690 c3         1 HXD      -0.088100
      4 C9           4.5680    -0.4400    -0.1340 c3         1 HXD      -0.075400
      5 C8           3.3190     0.4470     0.0560 c3         1 HXD      -0.074400
      6 C7           1.9940    -0.3370    -0.0720 c3         1 HXD      -0.075400
      7 C6           0.7450     0.5510     0.1180 c3         1 HXD      -0.076400
      8 C5          -0.5800    -0.2330    -0.0110 c3         1 HXD      -0.071400
      9 C4          -1.8310     0.6600     0.1790 c3         1 HXD      -0.112400
     10 C3          -3.1780    -0.0880     0.0040 c3         1 HXD       0.181300
     11 O8          -3.2960    -1.0850     1.0220 oh         1 HXD      -0.655000
     12 C2          -4.3890     0.8680     0.0850 c3         1 HXD      -0.236400
     13 C1          -5.6700     0.1430    -0.3510 c          1 HXD       0.725000
     14 O1          -6.3820    -0.3500     0.5110 o          1 HXD      -0.737500
     15 O           -5.9200     0.0910    -1.5460 o          1 HXD      -0.737500
     16 H111         7.1030    -1.0190    -1.1850 hc         1 HXD       0.035700
     17 H112         7.1320    -1.3500     0.5470 hc         1 HXD       0.035700
     18 H101         5.9350     0.8190     0.9820 hc         1 HXD       0.035700
     19 H102         5.9070     1.1500    -0.7500 hc         1 HXD       0.035700
     20 H121         8.5190     1.0320    -0.8240 hc         1 HXD       0.028367
     21 H122         8.5480     0.6970     0.9240 hc         1 HXD       0.028367
     22 H123         9.3190    -0.4320    -0.2110 hc         1 HXD       0.028367
     23 H91          4.5250    -0.9150    -1.1230 hc         1 HXD       0.035700
     24 H92          4.5540    -1.2470     0.6100 hc         1 HXD       0.035700
     25 H81          3.3620     0.9220     1.0450 hc         1 HXD       0.034200
     26 H82          3.3330     1.2540    -0.6880 hc         1 HXD       0.034200
     27 H71          1.9520    -0.8120    -1.0600 hc         1 HXD       0.036200
     28 H72          1.9800    -1.1430     0.6720 hc         1 HXD       0.036200
     29 H61          0.7880     1.0260     1.1070 hc         1 HXD       0.030700
     30 H62          0.7600     1.3580    -0.6250 hc         1 HXD       0.030700
     31 H51         -0.6230    -0.7060    -0.9990 hc         1 HXD       0.041200
     32 H52         -0.5890    -1.0400     0.7320 hc         1 HXD       0.041200
     33 H41         -1.7970     1.1250     1.1730 hc         1 HXD       0.028700
     34 H42         -1.7840     1.4770    -0.5510 hc         1 HXD       0.028700
     35 H3          -3.1740    -0.5590    -0.9910 h1         1 HXD       0.082700
     36 HO8         -3.5580    -0.6140     1.8410 ho         1 HXD       0.421000
     37 H21         -4.4620     1.2170     1.1220 hc         1 HXD       0.018700
     38 H22         -4.1670     1.6700    -0.6300 hc         1 HXD       0.018700
@<TRIPOS>BOND
     1     1     2 1   
     2     1     3 1   
     3     1    16 1   
     4     1    17 1   
     5     2     4 1   
     6     2    18 1   
     7     2    19 1   
     8     3    20 1   
     9     3    21 1   
    10     3    22 1   
    11     4     5 1   
    12     4    23 1   
    13     4    24 1   
    14     5     6 1   
    15     5    25 1   
    16     5    26 1   
    17     6     7 1   
    18     6    27 1   
    19     6    28 1   
    20     7     8 1   
    21     7    29 1   
    22     7    30 1   
    23     8     9 1   
    24     8    31 1   
    25     8    32 1   
    26     9    10 1   
    27     9    33 1   
    28     9    34 1   
    29    10    11 1   
    30    10    12 1   
    31    10    35 1   
    32    11    36 1   
    33    12    13 1   
    34    12    37 1   
    35    12    38 1   
    36    13    14 1   
    37    13    15 1   
@<TRIPOS>SUBSTRUCTURE
     1 HXD         1 TEMP              0 ****  ****    0 ROOT
