@<TRIPOS>MOLECULE
HXD
   38    37     1     0     0
SMALL
bcc


@<TRIPOS>ATOM
      1 C11          7.0750    -0.5310    -0.1640 c3         1 HXD      -0.075400
      2 C10          5.8340     0.3380     0.0080 c3         1 HXD      -0.075400
      3 C12          8.3710     0.2490     0.0080 c3         1 HXD      -0.088100
      4 C9           4.5300    -0.4320    -0.1530 c3         1 HXD      -0.075400
      5 C8           3.2920     0.4370     0.0320 c3         1 HXD      -0.074400
      6 C7           1.9860    -0.3320    -0.1230 c3         1 HXD      -0.075400
      7 C6           0.7500     0.5370     0.0730 c3         1 HXD      -0.076400
      8 C5          -0.5570    -0.2300    -0.0810 c3         1 HXD      -0.071400
      9 C4          -1.7840     0.6470     0.1320 c3         1 HXD      -0.112400
     10 C3          -3.1140    -0.0750    -0.0670 c3         1 HXD       0.158100
     11 O8          -3.2280    -1.2110     0.7750 oh         1 HXD      -0.592800
     12 C2          -4.2990     0.8620     0.1190 c3         1 HXD      -0.236400
     13 C1          -5.6540     0.1810    -0.1370 c          1 HXD       0.935600
     14 O1          -6.5440     0.3290     0.7250 o          1 HXD      -0.842800
     15 O           -5.7620    -0.4510    -1.2080 o          1 HXD      -0.842800
     16 H111         7.0550    -0.9990    -1.1530 hc         1 HXD       0.035700
     17 H112         7.0440    -1.3520     0.5590 hc         1 HXD       0.035700
     18 H101         5.8570     0.8080     0.9970 hc         1 HXD       0.035700
     19 H102         5.8640     1.1590    -0.7170 hc         1 HXD       0.035700
     20 H121         8.4510     1.0500    -0.7290 hc         1 HXD       0.028367
     21 H122         8.4260     0.7070     0.9970 hc         1 HXD       0.028367
     22 H123         9.2450    -0.3940    -0.1070 hc         1 HXD       0.028367
     23 H91          4.5030    -0.8980    -1.1450 hc         1 HXD       0.035700
     24 H92          4.5050    -1.2570     0.5680 hc         1 HXD       0.035700
     25 H81          3.3210     0.9030     1.0230 hc         1 HXD       0.034200
     26 H82          3.3150     1.2610    -0.6900 hc         1 HXD       0.034200
     27 H71          1.9520    -0.7940    -1.1160 hc         1 HXD       0.036200
     28 H72          1.9650    -1.1590     0.5960 hc         1 HXD       0.036200
     29 H61          0.7840     0.9970     1.0670 hc         1 HXD       0.030700
     30 H62          0.7720     1.3660    -0.6430 hc         1 HXD       0.030700
     31 H51         -0.5980    -0.6770    -1.0810 hc         1 HXD       0.041200
     32 H52         -0.5710    -1.0650     0.6260 hc         1 HXD       0.041200
     33 H41         -1.7550     1.0860     1.1380 hc         1 HXD       0.028700
     34 H42         -1.7500     1.4920    -0.5640 hc         1 HXD       0.028700
     35 H3          -3.1430    -0.4720    -1.0860 h1         1 HXD       0.082700
     36 HO8         -3.2340    -0.9020     1.6870 ho         1 HXD       0.382000
     37 H21         -4.2680     1.2990     1.1240 hc         1 HXD       0.018700
     38 H22         -4.1950     1.6980    -0.5820 hc         1 HXD       0.018700
@<TRIPOS>BOND
     1     1     2 1   
     2     1     3 1   
     3     1    16 1   
     4     1    17 1   
     5     2     4 1   
     6     2    18 1   
     7     2    19 1   
     8     3    20 1   
     9     3    21 1   
    10     3    22 1   
    11     4     5 1   
    12     4    23 1   
    13     4    24 1   
    14     5     6 1   
    15     5    25 1   
    16     5    26 1   
    17     6     7 1   
    18     6    27 1   
    19     6    28 1   
    20     7     8 1   
    21     7    29 1   
    22     7    30 1   
    23     8     9 1   
    24     8    31 1   
    25     8    32 1   
    26     9    10 1   
    27     9    33 1   
    28     9    34 1   
    29    10    11 1   
    30    10    12 1   
    31    10    35 1   
    32    11    36 1   
    33    12    13 1   
    34    12    37 1   
    35    12    38 1   
    36    13    14 1   
    37    13    15 1   
@<TRIPOS>SUBSTRUCTURE
     1 HXD         1 TEMP              0 ****  ****    0 ROOT
