@<TRIPOS>MOLECULE
HXE
   51    53     1     0     0
SMALL
bcc


@<TRIPOS>ATOM
      1 N4           8.0510    45.1570    57.3560 n1         1 HXE      -0.376800
      2 C13          8.1660    45.9880    58.1430 c1         1 HXE       0.213700
      3 C12          8.2880    47.0520    59.1250 c3         1 HXE      -0.048300
      4 C11          7.7990    48.3950    58.5620 c3         1 HXE       0.244800
      5 N3           7.8960    49.4530    59.5410 nh         1 HXE      -0.790300
      6 C10          9.1460    50.1810    59.6310 c3         1 HXE       0.209100
      7 C9           6.8950    49.6130    60.4390 ca         1 HXE       0.798200
      8 N2           5.9170    48.7230    60.4050 nb         1 HXE      -0.875000
      9 C14          6.8280    50.6600    61.3920 ca         1 HXE      -0.380700
     10 C17          5.7030    50.6710    62.2250 ca         1 HXE       0.533100
     11 C16          5.7140    51.7870    63.1240 cc         1 HXE      -0.256800
     12 C15          6.8010    52.5720    62.9530 cd         1 HXE      -0.090400
     13 S            7.8610    52.0200    61.7200 ss         1 HXE      -0.057500
     14 N5           4.7240    49.7610    62.1730 nb         1 HXE      -0.783000
     15 C8           4.8820    48.8170    61.2520 ca         1 HXE       0.961900
     16 N1           3.9240    47.8620    61.1670 nh         1 HXE      -0.776300
     17 C7           2.8850    47.8200    62.1740 c3         1 HXE       0.224100
     18 C4           3.9570    46.8360    60.1360 c6         1 HXE       0.243500
     19 C3           2.6130    46.6540    59.4380 c6         1 HXE      -0.089400
     20 C2           2.7280    45.5780    58.3680 c6         1 HXE       0.165800
     21 C5           4.4540    45.4930    60.6590 c6         1 HXE      -0.089400
     22 C6           4.4710    44.4540    59.5480 c6         1 HXE       0.165800
     23 N            3.1650    44.3120    58.9290 n3         1 HXE      -0.717600
     24 C1           3.1500    43.2680    57.9180 c3         1 HXE       0.166800
     25 C            3.3290    41.8680    58.4840 c3         1 HXE      -0.090100
     26 H1           9.3330    47.1160    59.4350 hc         1 HXE       0.080700
     27 H2           7.7010    46.7730    60.0020 hc         1 HXE       0.080700
     28 H3           8.4020    48.6750    57.6990 h1         1 HXE       0.067200
     29 H4           6.7700    48.2990    58.2240 h1         1 HXE       0.067200
     30 H5           9.5740    50.1340    60.6320 h1         1 HXE       0.047367
     31 H6           9.8660    49.7240    58.9570 h1         1 HXE       0.047367
     32 H7           9.0420    51.2250    59.3290 h1         1 HXE       0.047367
     33 H8           4.9340    51.9740    63.8480 ha         1 HXE       0.167000
     34 H9           7.0510    53.4710    63.4960 h4         1 HXE       0.167000
     35 H10          3.2980    47.9670    63.1700 h1         1 HXE       0.042700
     36 H11          2.1160    48.5790    62.0160 h1         1 HXE       0.042700
     37 H12          2.4050    46.8440    62.1580 h1         1 HXE       0.042700
     38 H13          4.6640    47.1770    59.3800 h1         1 HXE       0.079700
     39 H14          2.2980    47.5930    58.9770 hc         1 HXE       0.052450
     40 H15          1.8340    46.3640    60.1480 hc         1 HXE       0.052450
     41 H16          3.4160    45.9270    57.5760 h1         1 HXE       0.033450
     42 H17          1.7540    45.4340    57.8940 h1         1 HXE       0.033450
     43 H18          3.8120    45.1430    61.4740 hc         1 HXE       0.052450
     44 H19          5.4620    45.6030    61.0660 hc         1 HXE       0.052450
     45 H20          4.7820    43.4950    59.9660 h1         1 HXE       0.033450
     46 H21          5.2360    44.7270    58.7960 h1         1 HXE       0.033450
     47 H23          3.9140    43.4500    57.1430 h1         1 HXE       0.029700
     48 H24          2.1830    43.3160    57.4100 h1         1 HXE       0.029700
     49 H25          3.1680    41.1290    57.6980 hc         1 HXE       0.037367
     50 H26          4.3290    41.7000    58.8830 hc         1 HXE       0.037367
     51 H27          2.6090    41.6750    59.2800 hc         1 HXE       0.037367
@<TRIPOS>BOND
     1     1     2 3   
     2     2     3 1   
     3     3     4 1   
     4     3    26 1   
     5     3    27 1   
     6     4     5 1   
     7     4    28 1   
     8     4    29 1   
     9     5     6 1   
    10     5     7 1   
    11     6    30 1   
    12     6    31 1   
    13     6    32 1   
    14     7     8 ar  
    15     7     9 ar  
    16     8    15 ar  
    17     9    10 ar  
    18     9    13 1   
    19    10    11 1   
    20    10    14 ar  
    21    11    12 2   
    22    11    33 1   
    23    12    13 1   
    24    12    34 1   
    25    14    15 ar  
    26    15    16 1   
    27    16    17 1   
    28    16    18 1   
    29    17    35 1   
    30    17    36 1   
    31    17    37 1   
    32    18    19 1   
    33    18    21 1   
    34    18    38 1   
    35    19    20 1   
    36    19    39 1   
    37    19    40 1   
    38    20    23 1   
    39    20    41 1   
    40    20    42 1   
    41    21    22 1   
    42    21    43 1   
    43    21    44 1   
    44    22    23 1   
    45    22    45 1   
    46    22    46 1   
    47    23    24 1   
    48    24    25 1   
    49    24    47 1   
    50    24    48 1   
    51    25    49 1   
    52    25    50 1   
    53    25    51 1   
@<TRIPOS>SUBSTRUCTURE
     1 HXE         1 TEMP              0 ****  ****    0 ROOT
