@<TRIPOS>MOLECULE
HXE
   51    53     1     0     0
SMALL
No Charge or Current Charge


@<TRIPOS>ATOM
      1 N4           7.7640    45.6750    56.4960 n1         1 HXE      -0.466000
      2 C13          7.9630    46.2730    57.4760 c1         1 HXE       0.302900
      3 C12          8.1790    47.0190    58.7160 c3         1 HXE      -0.048300
      4 C11          7.9630    48.5350    58.5250 c3         1 HXE       0.244800
      5 N3           8.0840    49.3240    59.7790 nh         1 HXE      -0.790300
      6 C10          9.4510    49.6910    60.2120 c3         1 HXE       0.209100
      7 C9           6.9530    49.5910    60.5870 ca         1 HXE       0.469900
      8 N2           5.9730    48.6720    60.5510 nb         1 HXE      -0.349000
      9 C14          6.7980    50.7400    61.3820 ca         1 HXE      -0.377000
     10 C17          5.6400    50.8710    62.1130 ca         1 HXE       0.204800
     11 C16          5.5770    52.0930    62.8700 cc         1 HXE      -0.306800
     12 C15          6.7020    52.8780    62.6720 cd         1 HXE      -0.140400
     13 S            7.8820    52.1430    61.5490 ss         1 HXE       0.069400
     14 N5           4.6600    49.9590    62.0960 nb         1 HXE      -0.257000
     15 C8           4.8740    48.8870    61.3030 ca         1 HXE       0.435900
     16 N1           3.8530    47.8970    61.2540 nh         1 HXE      -0.776300
     17 C7           2.8210    47.8130    62.3240 c3         1 HXE       0.224100
     18 C4           3.8480    46.8540    60.1730 c6         1 HXE       0.243500
     19 C3           2.4340    46.5560    59.6150 c6         1 HXE      -0.089400
     20 C2           2.5240    45.5010    58.4910 c6         1 HXE       0.165800
     21 C5           4.5070    45.5420    60.6550 c6         1 HXE      -0.089400
     22 C6           4.5340    44.5030    59.5110 c6         1 HXE       0.165800
     23 N            3.1680    44.2440    58.9660 n3         1 HXE      -0.717600
     24 C1           3.1380    43.1880    57.9240 c3         1 HXE       0.166800
     25 C            3.5630    41.7870    58.4090 c3         1 HXE      -0.090100
     26 H1           9.1980    46.8310    59.0700 hc         1 HXE       0.080700
     27 H2           7.4930    46.6350    59.4760 hc         1 HXE       0.080700
     28 H3           8.6900    48.9060    57.7880 h1         1 HXE       0.067200
     29 H4           6.9720    48.7020    58.0790 h1         1 HXE       0.067200
     30 H5           9.5170    49.7110    61.3080 h1         1 HXE       0.047367
     31 H6          10.1860    48.9580    59.8530 h1         1 HXE       0.047367
     32 H7           9.7290    50.6780    59.8200 h1         1 HXE       0.047367
     33 H8           4.7490    52.3750    63.5150 ha         1 HXE       0.217000
     34 H9           6.9220    53.8480    63.1100 h4         1 HXE       0.217000
     35 H10          3.2320    48.1300    63.2920 h1         1 HXE       0.042700
     36 H11          1.9620    48.4510    62.0800 h1         1 HXE       0.042700
     37 H12          2.4680    46.7820    62.4560 h1         1 HXE       0.042700
     38 H13          4.4270    47.2140    59.3090 h1         1 HXE       0.079700
     39 H14          1.9830    47.4770    59.2240 hc         1 HXE       0.052450
     40 H15          1.7670    46.1780    60.4000 hc         1 HXE       0.052450
     41 H16          3.0900    45.9220    57.6460 h1         1 HXE       0.033450
     42 H17          1.5080    45.2930    58.1260 h1         1 HXE       0.033450
     43 H18          3.9570    45.1300    61.5110 hc         1 HXE       0.052450
     44 H19          5.5300    45.7370    60.9990 hc         1 HXE       0.052450
     45 H20          4.9790    43.5800    59.9080 h1         1 HXE       0.033450
     46 H21          5.1990    44.8660    58.7130 h1         1 HXE       0.033450
     47 H23          3.7760    43.4750    57.0770 h1         1 HXE       0.029700
     48 H24          2.1140    43.0980    57.5350 h1         1 HXE       0.029700
     49 H25          3.3830    41.0470    57.6210 hc         1 HXE       0.037367
     50 H26          4.6300    41.7570    58.6580 hc         1 HXE       0.037367
     51 H27          2.9860    41.4930    59.2940 hc         1 HXE       0.037367
@<TRIPOS>BOND
     1     1     2 3   
     2     2     3 1   
     3     3     4 1   
     4     3    26 1   
     5     3    27 1   
     6     4     5 1   
     7     4    28 1   
     8     4    29 1   
     9     5     6 1   
    10     5     7 1   
    11     6    30 1   
    12     6    31 1   
    13     6    32 1   
    14     7     8 ar  
    15     7     9 ar  
    16     8    15 ar  
    17     9    10 ar  
    18     9    13 1   
    19    10    11 1   
    20    10    14 ar  
    21    11    12 2   
    22    11    33 1   
    23    12    13 1   
    24    12    34 1   
    25    14    15 ar  
    26    15    16 1   
    27    16    17 1   
    28    16    18 1   
    29    17    35 1   
    30    17    36 1   
    31    17    37 1   
    32    18    19 1   
    33    18    21 1   
    34    18    38 1   
    35    19    20 1   
    36    19    39 1   
    37    19    40 1   
    38    20    23 1   
    39    20    41 1   
    40    20    42 1   
    41    21    22 1   
    42    21    43 1   
    43    21    44 1   
    44    22    23 1   
    45    22    45 1   
    46    22    46 1   
    47    23    24 1   
    48    24    25 1   
    49    24    47 1   
    50    24    48 1   
    51    25    49 1   
    52    25    50 1   
    53    25    51 1   
@<TRIPOS>SUBSTRUCTURE
     1 HXE         1 TEMP              0 ****  ****    0 ROOT
