@<TRIPOS>MOLECULE
HXF
   53    53     1     0     0
SMALL
No Charge or Current Charge


@<TRIPOS>ATOM
      1 C4          37.2750   -29.7710     2.7290 c          1 HXF       0.597100
      2 C5          37.1250   -31.9370     4.0300 c3         1 HXF       0.044700
      3 C11         36.3590   -33.2490     3.7410 c3         1 HXF      -0.109100
      4 C7          32.8380   -28.0120     4.3220 c3         1 HXF       0.214100
      5 C8          33.2860   -26.4300     2.4600 c3         1 HXF       0.009800
      6 C9          31.8490   -26.4700     1.8250 c          1 HXF       0.721000
      7 C10         33.5640   -30.4270    -0.0060 c3         1 HXF      -0.185100
      8 C12         37.2180   -31.5730     5.5490 c          1 HXF       0.590100
      9 N1          35.1850   -29.2640     1.4010 ns         1 HXF      -0.514900
     10 N2          36.5510   -30.8280     3.2400 ns         1 HXF      -0.477900
     11 C3          35.0100   -30.0900     0.3210 c          1 HXF       0.598100
     12 C1          36.2760   -27.4080     2.6370 c3         1 HXF      -0.078400
     13 C2          36.4850   -28.7380     1.8690 c3         1 HXF       0.048700
     14 O2          35.9510   -30.5320    -0.3210 o          1 HXF      -0.653100
     15 O3          38.4840   -29.6800     2.9070 o          1 HXF      -0.638100
     16 N4          37.6370   -32.6090     6.3840 ns         1 HXF      -0.387400
     17 O4          30.9520   -25.8400     2.3720 o          1 HXF      -0.730000
     18 N5          33.7780   -27.6250     3.2370 n3         1 HXF      -0.710600
     19 O5          31.6800   -27.1220     0.8020 o          1 HXF      -0.730000
     20 O8          36.9710   -30.4550     5.9900 o          1 HXF      -0.558100
     21 O9          37.5320   -32.5000     7.8250 oh         1 HXF      -0.439100
     22 C21         33.6180   -29.6870     6.0830 ca         1 HXF      -0.098500
     23 C23         33.0450   -29.4390     4.8200 ca         1 HXF      -0.066300
     24 C31         32.6330   -30.5260     4.0230 ca         1 HXF      -0.098500
     25 C41         32.7920   -31.8440     4.4830 ca         1 HXF      -0.126500
     26 C51         33.3600   -32.0850     5.7450 ca         1 HXF      -0.136000
     27 C61         33.7740   -31.0070     6.5440 ca         1 HXF      -0.126500
     28 H1          38.1590   -32.0930     3.6960 h1         1 HXF       0.069700
     29 H2          35.4350   -28.2920     4.4090 h1         1 HXF       0.033200
     30 H3          36.8510   -34.1090     4.2090 hc         1 HXF       0.050367
     31 H4          35.3320   -33.1940     4.1150 hc         1 HXF       0.050367
     32 H5          36.3190   -33.4380     2.6620 hc         1 HXF       0.050367
     33 H6          32.9200   -27.3110     5.1640 h1         1 HXF       0.047700
     34 H7          31.8000   -27.9520     3.9680 h1         1 HXF       0.047700
     35 H8          33.9650   -26.2280     1.6230 h1         1 HXF       0.022200
     36 H9          33.3250   -25.5430     3.1070 h1         1 HXF       0.022200
     37 H10         33.1120   -30.9190     0.8610 hc         1 HXF       0.066033
     38 H11         32.9850   -29.5000    -0.0800 hc         1 HXF       0.066033
     39 H12         33.4680   -31.0430    -0.9070 hc         1 HXF       0.066033
     40 H13         34.3480   -28.8850     1.8500 hn         1 HXF       0.393500
     41 H14         35.5530   -30.8120     3.0660 hn         1 HXF       0.344500
     42 H15         37.2240   -27.1220     3.1080 hc         1 HXF       0.056200
     43 H16         37.1120   -28.5330     0.9910 h1         1 HXF       0.080700
     44 H17         37.7090   -33.5550     6.0110 hn         1 HXF       0.326500
     45 H19         38.4300   -32.7550     8.1440 ho         1 HXF       0.444000
     46 H21         32.1790   -30.3430     3.0520 ha         1 HXF       0.131500
     47 H22         32.4700   -32.6780     3.8630 ha         1 HXF       0.102000
     48 H23         33.4820   -33.1050     6.1020 ha         1 HXF       0.095000
     49 H24         34.2200   -31.1920     7.5180 ha         1 HXF       0.102000
     50 H26         36.0530   -26.6100     1.9220 hc         1 HXF       0.056200
     51 C6          35.1780   -27.4650     3.7350 c3         1 HXF       0.150800
     52 H20         33.9420   -28.8580     6.7080 ha         1 HXF       0.131500
     53 H25         35.2440   -26.5460     4.3330 h1         1 HXF       0.033200
@<TRIPOS>BOND
     1     1    10 1   
     2     1    13 1   
     3     1    15 2   
     4     2     3 1   
     5     2     8 1   
     6     2    10 1   
     7     2    28 1   
     8     3    30 1   
     9     3    31 1   
    10     3    32 1   
    11     4    18 1   
    12     4    23 1   
    13     4    33 1   
    14     4    34 1   
    15     5     6 1   
    16     5    18 1   
    17     5    35 1   
    18     5    36 1   
    19     6    17 1   
    20     6    19 1   
    21     7    11 1   
    22     7    37 1   
    23     7    38 1   
    24     7    39 1   
    25     8    16 1   
    26     8    20 2   
    27     9    11 1   
    28     9    13 1   
    29     9    40 1   
    30    10    41 1   
    31    11    14 2   
    32    12    13 1   
    33    12    42 1   
    34    12    50 1   
    35    12    51 1   
    36    13    43 1   
    37    16    21 1   
    38    16    44 1   
    39    18    51 1   
    40    21    45 1   
    41    22    23 ar  
    42    22    27 ar  
    43    22    52 1   
    44    23    24 ar  
    45    24    25 ar  
    46    24    46 1   
    47    25    26 ar  
    48    25    47 1   
    49    26    27 ar  
    50    26    48 1   
    51    27    49 1   
    52    29    51 1   
    53    51    53 1   
@<TRIPOS>SUBSTRUCTURE
     1 HXF         1 TEMP              0 ****  ****    0 ROOT
