@<TRIPOS>MOLECULE
HXF
   53    53     1     0     0
SMALL
bcc


@<TRIPOS>ATOM
      1 C4          37.1390   -29.9540     2.7970 c          1 HXF       0.664100
      2 C5          37.0400   -31.9930     4.0870 c3         1 HXF       0.044700
      3 C11         36.0860   -33.1610     4.3000 c3         1 HXF      -0.109100
      4 C7          32.8930   -28.0190     4.4200 c3         1 HXF       0.214100
      5 C8          33.4660   -26.3660     2.7910 c3         1 HXF       0.009800
      6 C9          32.2760   -26.4320     1.8080 c          1 HXF       0.931600
      7 C10         33.5860   -30.4780     0.0560 c3         1 HXF      -0.185100
      8 C12         37.4690   -31.4220     5.4420 c          1 HXF       0.657100
      9 N1          35.1190   -29.2950     1.4910 ns         1 HXF      -0.581900
     10 N2          36.4180   -30.9710     3.2870 ns         1 HXF      -0.544900
     11 C3          35.0010   -30.1620     0.4680 c          1 HXF       0.665100
     12 C1          36.2780   -27.6020     2.8270 c3         1 HXF      -0.078400
     13 C2          36.4040   -28.8840     1.9940 c3         1 HXF       0.048700
     14 O2          35.9710   -30.6800    -0.0700 o          1 HXF      -0.653100
     15 O3          38.3440   -29.8540     2.9900 o          1 HXF      -0.638100
     16 N4          38.5430   -32.0500     5.9580 ns         1 HXF      -0.454400
     17 O4          31.8360   -25.3200     1.4580 o          1 HXF      -0.835300
     18 N5          33.8460   -27.6320     3.3920 n3         1 HXF      -0.710600
     19 O5          31.8810   -27.5500     1.4230 o          1 HXF      -0.835300
     20 O8          36.8850   -30.5110     5.9950 o          1 HXF      -0.558100
     21 O9          38.8740   -31.8600     7.2670 oh         1 HXF      -0.400100
     22 C21         33.1430   -30.0090     5.9570 ca         1 HXF      -0.116500
     23 C23         32.8730   -29.5000     4.6920 ca         1 HXF      -0.066300
     24 C31         32.5200   -30.3870     3.6750 ca         1 HXF      -0.116500
     25 C41         32.4240   -31.7470     3.9220 ca         1 HXF      -0.144500
     26 C51         32.6800   -32.2450     5.1960 ca         1 HXF      -0.154000
     27 C61         33.0450   -31.3730     6.2110 ca         1 HXF      -0.144500
     28 H1          37.9250   -32.3600     3.5580 h1         1 HXF       0.069700
     29 H2          35.3420   -28.5230     4.5290 h1         1 HXF       0.033200
     30 H3          36.5730   -33.9520     4.8700 hc         1 HXF       0.050367
     31 H4          35.1940   -32.8490     4.8410 hc         1 HXF       0.050367
     32 H5          35.7810   -33.5770     3.3410 hc         1 HXF       0.050367
     33 H6          33.0740   -27.4720     5.3590 h1         1 HXF       0.047700
     34 H7          31.8980   -27.7280     4.0840 h1         1 HXF       0.047700
     35 H8          34.3110   -25.9760     2.2180 h1         1 HXF       0.022200
     36 H9          33.2600   -25.6020     3.5570 h1         1 HXF       0.022200
     37 H10         33.2490   -31.3710     0.5860 hc         1 HXF       0.066033
     38 H11         32.8920   -29.6700     0.2830 hc         1 HXF       0.066033
     39 H12         33.5480   -30.6940    -1.0100 hc         1 HXF       0.066033
     40 H13         34.3020   -28.8580     1.9260 hn         1 HXF       0.393500
     41 H14         35.4150   -30.9720     3.1800 hn         1 HXF       0.344500
     42 H15         37.2440   -27.4050     3.2930 hc         1 HXF       0.056200
     43 H16         37.0700   -28.6610     1.1550 h1         1 HXF       0.080700
     44 H17         38.9180   -32.8960     5.5500 hn         1 HXF       0.326500
     45 H19         39.6060   -31.2300     7.2680 ho         1 HXF       0.405000
     46 H21         32.2880   -29.9940     2.6940 ha         1 HXF       0.149500
     47 H22         32.1410   -32.4210     3.1240 ha         1 HXF       0.120000
     48 H23         32.6000   -33.3060     5.3910 ha         1 HXF       0.113000
     49 H24         33.2550   -31.7530     7.2030 ha         1 HXF       0.120000
     50 H26         36.1110   -26.7680     2.1430 hc         1 HXF       0.056200
     51 C6          35.2090   -27.6270     3.9160 c3         1 HXF       0.150800
     52 H20         33.4250   -29.3330     6.7560 ha         1 HXF       0.149500
     53 H25         35.3710   -26.7730     4.5920 h1         1 HXF       0.033200
@<TRIPOS>BOND
     1     1    10 1   
     2     1    13 1   
     3     1    15 2   
     4     2     3 1   
     5     2     8 1   
     6     2    10 1   
     7     2    28 1   
     8     3    30 1   
     9     3    31 1   
    10     3    32 1   
    11     4    18 1   
    12     4    23 1   
    13     4    33 1   
    14     4    34 1   
    15     5     6 1   
    16     5    18 1   
    17     5    35 1   
    18     5    36 1   
    19     6    17 1   
    20     6    19 1   
    21     7    11 1   
    22     7    37 1   
    23     7    38 1   
    24     7    39 1   
    25     8    16 1   
    26     8    20 2   
    27     9    11 1   
    28     9    13 1   
    29     9    40 1   
    30    10    41 1   
    31    11    14 2   
    32    12    13 1   
    33    12    42 1   
    34    12    50 1   
    35    12    51 1   
    36    13    43 1   
    37    16    21 1   
    38    16    44 1   
    39    18    51 1   
    40    21    45 1   
    41    22    23 ar  
    42    22    27 ar  
    43    22    52 1   
    44    23    24 ar  
    45    24    25 ar  
    46    24    46 1   
    47    25    26 ar  
    48    25    47 1   
    49    26    27 ar  
    50    26    48 1   
    51    27    49 1   
    52    29    51 1   
    53    51    53 1   
@<TRIPOS>SUBSTRUCTURE
     1 HXF         1 TEMP              0 ****  ****    0 ROOT
