@<TRIPOS>MOLECULE
HXG
   70    69     1     0     0
SMALL
abcg2


@<TRIPOS>ATOM
      1 CAA         10.1730    -0.5510     0.8650 c3         1 HXG      -0.089100
      2 CAJ          9.1170    -1.3710     0.1380 c3         1 HXG      -0.075400
      3 CAL          7.6970    -0.9900     0.5370 c3         1 HXG      -0.077400
      4 CAN          6.6390    -1.8290    -0.1690 c3         1 HXG      -0.068400
      5 CAQ          5.2310    -1.4280     0.2400 c3         1 HXG      -0.138400
      6 CAZ          4.1570    -2.2770    -0.3820 c          1 HXG       0.594100
      7 OAF          4.3420    -3.2180    -1.1120 o          1 HXG      -0.489000
      8 OAV          2.9430    -1.8690    -0.0180 os         1 HXG      -0.446100
      9 CAT          1.8210    -2.5980    -0.5100 c3         1 HXG       0.158600
     10 CBB          0.5820    -1.9330     0.0450 c3         1 HXG       0.145300
     11 OAY          0.5070    -0.6300    -0.5320 os         1 HXG      -0.435100
     12 CBA          0.1480     0.4180     0.2070 c          1 HXG       0.623100
     13 OAG         -0.0620     0.3700     1.3910 o          1 HXG      -0.509000
     14 CAR          0.0480     1.6600    -0.6340 c3         1 HXG      -0.154400
     15 CAO          0.0320     2.9450     0.1800 c3         1 HXG      -0.065400
     16 CAM         -0.1260     4.1780    -0.7000 c3         1 HXG      -0.081400
     17 CAK         -0.1660     5.4740     0.1000 c3         1 HXG      -0.075400
     18 CAB         -0.3090     6.7060    -0.7830 c3         1 HXG      -0.090100
     19 CAU         -0.6650    -2.7160    -0.3250 c3         1 HXG       0.214600
     20 OAX         -1.7930    -2.1270     0.2840 os         1 HXG      -0.580400
     21 PBD         -3.0210    -1.6090    -0.6650 p5         1 HXG       1.386800
     22 OAI         -3.6530    -2.7610    -1.3790 o          1 HXG      -0.819000
     23 OAH         -2.6260    -0.3860    -1.4410 o          1 HXG      -0.819000
     24 OAW         -3.9400    -1.1590     0.6250 os         1 HXG      -0.570400
     25 CAP         -5.2580    -0.7360     0.3640 c3         1 HXG       0.213600
     26 CAS         -5.6140     0.5240     1.1180 c3         1 HXG       0.085600
     27 NBC         -4.9680     1.8110     0.6710 n4         1 HXG      -0.487000
     28 CAD         -5.1270     2.0200    -0.7950 c3         1 HXG       0.073900
     29 CAE         -5.6570     2.9180     1.3950 c3         1 HXG       0.073900
     30 CAC         -3.5160     1.8590     1.0120 c3         1 HXG       0.073900
     31 H1          10.1000    -0.6840     1.9460 hc         1 HXG       0.031367
     32 H2          11.1820    -0.8370     0.5650 hc         1 HXG       0.031367
     33 H3          10.0580     0.5150     0.6580 hc         1 HXG       0.031367
     34 H4           9.2340    -1.2470    -0.9430 hc         1 HXG       0.039700
     35 H5           9.2750    -2.4350     0.3400 hc         1 HXG       0.039700
     36 H6           7.5840    -1.0980     1.6210 hc         1 HXG       0.036700
     37 H7           7.5330     0.0710     0.3190 hc         1 HXG       0.036700
     38 H8           6.7540    -1.7260    -1.2510 hc         1 HXG       0.053700
     39 H9           6.8030    -2.8850     0.0620 hc         1 HXG       0.053700
     40 H10          5.1180    -1.4860     1.3270 hc         1 HXG       0.070700
     41 H11          5.0380    -0.3820    -0.0180 hc         1 HXG       0.070700
     42 H12          1.8090    -2.5970    -1.6030 h1         1 HXG       0.061200
     43 H13          1.8610    -3.6360    -0.1730 h1         1 HXG       0.061200
     44 H14          0.6590    -1.8680     1.1340 h1         1 HXG       0.088700
     45 H15          0.8670     1.6750    -1.3580 hc         1 HXG       0.088700
     46 H16         -0.8690     1.5620    -1.2260 hc         1 HXG       0.088700
     47 H17         -0.7780     2.9160     0.9120 hc         1 HXG       0.040700
     48 H18          0.9580     3.0260     0.7570 hc         1 HXG       0.040700
     49 H19          0.6970     4.2230    -1.4220 hc         1 HXG       0.039200
     50 H20         -1.0430     4.0890    -1.2940 hc         1 HXG       0.039200
     51 H21         -0.9970     5.4330     0.8120 hc         1 HXG       0.033700
     52 H22          0.7440     5.5550     0.7020 hc         1 HXG       0.033700
     53 H23         -0.3340     7.6230    -0.1940 hc         1 HXG       0.032033
     54 H24          0.5240     6.7870    -1.4840 hc         1 HXG       0.032033
     55 H25         -1.2290     6.6650    -1.3690 hc         1 HXG       0.032033
     56 H26         -0.7550    -2.7710    -1.4150 h1         1 HXG       0.043200
     57 H27         -0.5570    -3.7420     0.0390 h1         1 HXG       0.043200
     58 H29         -5.4660    -0.6130    -0.7030 h1         1 HXG       0.055200
     59 H30         -5.9650    -1.4910     0.7210 h1         1 HXG       0.055200
     60 H31         -6.6890     0.6740     1.0140 hx         1 HXG       0.080200
     61 H32         -5.3930     0.4190     2.1800 hx         1 HXG       0.080200
     62 H33         -6.1760     1.9320    -1.0640 hx         1 HXG       0.095589
     63 H34         -4.7720     3.0180    -1.0400 hx         1 HXG       0.095589
     64 H35         -4.5320     1.2880    -1.3330 hx         1 HXG       0.095589
     65 H36         -5.5330     2.7770     2.4650 hx         1 HXG       0.095589
     66 H37         -5.2190     3.8660     1.0970 hx         1 HXG       0.095589
     67 H38         -6.7150     2.9070     1.1450 hx         1 HXG       0.095589
     68 H39         -2.9670     1.1660     0.3860 hx         1 HXG       0.095589
     69 H40         -3.1660     2.8730     0.8290 hx         1 HXG       0.095589
     70 H41         -3.3850     1.6130     2.0620 hx         1 HXG       0.095589
@<TRIPOS>BOND
     1     1     2 1   
     2     1    31 1   
     3     1    32 1   
     4     1    33 1   
     5     2     3 1   
     6     2    34 1   
     7     2    35 1   
     8     3     4 1   
     9     3    36 1   
    10     3    37 1   
    11     4     5 1   
    12     4    38 1   
    13     4    39 1   
    14     5     6 1   
    15     5    40 1   
    16     5    41 1   
    17     6     7 2   
    18     6     8 1   
    19     8     9 1   
    20     9    10 1   
    21     9    42 1   
    22     9    43 1   
    23    10    11 1   
    24    10    19 1   
    25    10    44 1   
    26    11    12 1   
    27    12    13 2   
    28    12    14 1   
    29    14    15 1   
    30    14    45 1   
    31    14    46 1   
    32    15    16 1   
    33    15    47 1   
    34    15    48 1   
    35    16    17 1   
    36    16    49 1   
    37    16    50 1   
    38    17    18 1   
    39    17    51 1   
    40    17    52 1   
    41    18    53 1   
    42    18    54 1   
    43    18    55 1   
    44    19    20 1   
    45    19    56 1   
    46    19    57 1   
    47    20    21 1   
    48    21    22 1   
    49    21    23 1   
    50    21    24 1   
    51    24    25 1   
    52    25    26 1   
    53    25    58 1   
    54    25    59 1   
    55    26    27 1   
    56    26    60 1   
    57    26    61 1   
    58    27    28 1   
    59    27    29 1   
    60    27    30 1   
    61    28    62 1   
    62    28    63 1   
    63    28    64 1   
    64    29    65 1   
    65    29    66 1   
    66    29    67 1   
    67    30    68 1   
    68    30    69 1   
    69    30    70 1   
@<TRIPOS>SUBSTRUCTURE
     1 HXG         1 TEMP              0 ****  ****    0 ROOT
