@<TRIPOS>MOLECULE
HXG
   70    69     1     0     0
SMALL
No Charge or Current Charge


@<TRIPOS>ATOM
      1 CAA          7.2810     0.5600     3.8210 c3         1 HXG      -0.089100
      2 CAJ          6.2220    -0.3410     3.1570 c3         1 HXG      -0.075400
      3 CAL          5.8130     0.1420     1.7490 c3         1 HXG      -0.077400
      4 CAN          4.7540    -0.7630     1.0830 c3         1 HXG      -0.068400
      5 CAQ          4.3480    -0.2800    -0.3300 c3         1 HXG      -0.138400
      6 CAZ          3.2920    -1.1970    -0.9490 c          1 HXG       0.594100
      7 OAF          3.5550    -2.2240    -1.5600 o          1 HXG      -0.489000
      8 OAV          2.0240    -0.7470    -0.6990 os         1 HXG      -0.446100
      9 CAT          0.9150    -1.5020    -1.2270 c3         1 HXG       0.158600
     10 CBB         -0.4060    -0.7710    -0.8760 c3         1 HXG       0.145300
     11 OAY         -0.4090     0.4990    -1.5700 os         1 HXG      -0.435100
     12 CBA          0.0270     1.6210    -0.9090 c          1 HXG       0.623100
     13 OAG          0.3660     1.6590     0.2670 o          1 HXG      -0.509000
     14 CAR          0.0970     2.8280    -1.8420 c3         1 HXG      -0.154400
     15 CAO          1.5110     2.9730    -2.4510 c3         1 HXG      -0.065400
     16 CAM          1.6400     4.1800    -3.4050 c3         1 HXG      -0.081400
     17 CAK          3.0540     4.3220    -4.0100 c3         1 HXG      -0.075400
     18 CAB          3.1870     5.5280    -4.9600 c3         1 HXG      -0.090100
     19 CAU         -1.6500    -1.5870    -1.3220 c3         1 HXG       0.214600
     20 OAX         -2.8390    -1.0820    -0.6890 os         1 HXG      -0.580400
     21 PBD         -3.6270     0.2170    -1.2320 p5         1 HXG       1.386800
     22 OAI         -3.6090     0.2820    -2.7220 o          1 HXG      -0.819000
     23 OAH         -3.1680     1.4850    -0.5990 o          1 HXG      -0.819000
     24 OAW         -5.1110    -0.1880    -0.7410 os         1 HXG      -0.570400
     25 CAP         -5.5260     0.0090     0.6230 c3         1 HXG       0.213600
     26 CAS         -4.8650    -1.0440     1.5520 c3         1 HXG       0.085600
     27 NBC         -4.0850    -0.5600     2.7900 n4         1 HXG      -0.487000
     28 CAD         -5.0100     0.2270     3.7310 c3         1 HXG       0.073900
     29 CAE         -3.5430    -1.7850     3.5370 c3         1 HXG       0.073900
     30 CAC         -2.9010     0.3250     2.3740 c3         1 HXG       0.073900
     31 H1           6.9040     1.5830     3.9340 hc         1 HXG       0.031367
     32 H2           7.5380     0.1770     4.8160 hc         1 HXG       0.031367
     33 H3           8.1970     0.5910     3.2190 hc         1 HXG       0.031367
     34 H4           6.6150    -1.3640     3.0910 hc         1 HXG       0.039700
     35 H5           5.3340    -0.3810     3.8000 hc         1 HXG       0.039700
     36 H6           5.4210     1.1650     1.8190 hc         1 HXG       0.036700
     37 H7           6.7050     0.1850     1.1100 hc         1 HXG       0.036700
     38 H8           5.1450    -1.7870     1.0150 hc         1 HXG       0.053700
     39 H9           3.8610    -0.8040     1.7200 hc         1 HXG       0.053700
     40 H10          3.9280     0.7280    -0.2250 hc         1 HXG       0.070700
     41 H11          5.2350    -0.2650    -0.9740 hc         1 HXG       0.070700
     42 H12          0.9940    -1.6000    -2.3180 h1         1 HXG       0.061200
     43 H13          0.8990    -2.5110    -0.7940 h1         1 HXG       0.061200
     44 H14         -0.4670    -0.6500     0.2140 h1         1 HXG       0.088700
     45 H15         -0.6100     2.6820    -2.6660 hc         1 HXG       0.088700
     46 H16         -0.1480     3.7320    -1.2740 hc         1 HXG       0.088700
     47 H17          2.2440     3.0740    -1.6400 hc         1 HXG       0.040700
     48 H18          1.7640     2.0530    -2.9950 hc         1 HXG       0.040700
     49 H19          0.9090     4.0790    -4.2170 hc         1 HXG       0.039200
     50 H20          1.3880     5.0980    -2.8600 hc         1 HXG       0.039200
     51 H21          3.7870     4.4240    -3.2010 hc         1 HXG       0.033700
     52 H22          3.3080     3.4060    -4.5590 hc         1 HXG       0.033700
     53 H23          4.2050     5.5860    -5.3630 hc         1 HXG       0.032033
     54 H24          2.4890     5.4380    -5.8010 hc         1 HXG       0.032033
     55 H25          2.9730     6.4640    -4.4310 hc         1 HXG       0.032033
     56 H26         -1.7360    -1.5640    -2.4170 h1         1 HXG       0.043200
     57 H27         -1.5070    -2.6360    -1.0310 h1         1 HXG       0.043200
     58 H29         -5.2650     1.0190     0.9660 h1         1 HXG       0.055200
     59 H30         -6.6160    -0.0860     0.7050 h1         1 HXG       0.055200
     60 H31         -5.6550    -1.7070     1.9110 hx         1 HXG       0.080200
     61 H32         -4.1850    -1.6590     0.9630 hx         1 HXG       0.080200
     62 H33         -5.8490    -0.4080     4.0260 hx         1 HXG       0.095589
     63 H34         -4.4500     0.5290     4.6180 hx         1 HXG       0.095589
     64 H35         -5.3840     1.1140     3.2160 hx         1 HXG       0.095589
     65 H36         -2.8820    -2.3470     2.8740 hx         1 HXG       0.095589
     66 H37         -2.9870    -1.4550     4.4170 hx         1 HXG       0.095589
     67 H38         -4.3780    -2.4180     3.8450 hx         1 HXG       0.095589
     68 H39         -3.2740     1.2230     1.8780 hx         1 HXG       0.095589
     69 H40         -2.3320     0.6090     3.2620 hx         1 HXG       0.095589
     70 H41         -2.2600    -0.2320     1.6880 hx         1 HXG       0.095589
@<TRIPOS>BOND
     1     1     2 1   
     2     1    31 1   
     3     1    32 1   
     4     1    33 1   
     5     2     3 1   
     6     2    34 1   
     7     2    35 1   
     8     3     4 1   
     9     3    36 1   
    10     3    37 1   
    11     4     5 1   
    12     4    38 1   
    13     4    39 1   
    14     5     6 1   
    15     5    40 1   
    16     5    41 1   
    17     6     7 2   
    18     6     8 1   
    19     8     9 1   
    20     9    10 1   
    21     9    42 1   
    22     9    43 1   
    23    10    11 1   
    24    10    19 1   
    25    10    44 1   
    26    11    12 1   
    27    12    13 2   
    28    12    14 1   
    29    14    15 1   
    30    14    45 1   
    31    14    46 1   
    32    15    16 1   
    33    15    47 1   
    34    15    48 1   
    35    16    17 1   
    36    16    49 1   
    37    16    50 1   
    38    17    18 1   
    39    17    51 1   
    40    17    52 1   
    41    18    53 1   
    42    18    54 1   
    43    18    55 1   
    44    19    20 1   
    45    19    56 1   
    46    19    57 1   
    47    20    21 1   
    48    21    22 1   
    49    21    23 1   
    50    21    24 1   
    51    24    25 1   
    52    25    26 1   
    53    25    58 1   
    54    25    59 1   
    55    26    27 1   
    56    26    60 1   
    57    26    61 1   
    58    27    28 1   
    59    27    29 1   
    60    27    30 1   
    61    28    62 1   
    62    28    63 1   
    63    28    64 1   
    64    29    65 1   
    65    29    66 1   
    66    29    67 1   
    67    30    68 1   
    68    30    69 1   
    69    30    70 1   
@<TRIPOS>SUBSTRUCTURE
     1 HXG         1 TEMP              0 ****  ****    0 ROOT
