@<TRIPOS>MOLECULE
HXH
   45    47     1     0     0
SMALL
abcg2


@<TRIPOS>ATOM
      1 C1           3.1570    -0.2970    -0.5680 c6         1 HXH       0.207700
      2 N1           1.7580    -0.4150    -0.1910 n7         1 HXH      -0.856400
      3 C2           3.7050     1.0450    -0.0930 c6         1 HXH       0.192300
      4 O2           3.0880     2.0620    -0.8410 oh         1 HXH      -0.702000
      5 C3           5.2230     1.0840    -0.2450 c6         1 HXH       0.134300
      6 O3           5.6430     2.3940     0.0590 oh         1 HXH      -0.671000
      7 C4           5.8650     0.0550     0.6730 c6         1 HXH       0.168500
      8 O4           7.2450     0.0090     0.3620 oh         1 HXH      -0.723000
      9 C5           5.2060    -1.2820     0.4950 c2         1 HXH      -0.238200
     10 C6           4.0100    -1.4330    -0.0630 c2         1 HXH      -0.244200
     11 C10          1.0030    -1.4110    -0.9260 c3         1 HXH       0.220100
     12 C11         -0.4550    -1.3520    -0.5550 ca         1 HXH      -0.127300
     13 C12         -1.1480    -0.1460    -0.5890 ca         1 HXH      -0.063000
     14 C13         -2.4940    -0.0730    -0.2590 ca         1 HXH      -0.166500
     15 C14         -3.1690    -1.2300     0.1210 ca         1 HXH       0.139100
     16 C15         -2.4940    -2.4430     0.1660 ca         1 HXH      -0.166500
     17 C16         -1.1490    -2.4930    -0.1670 ca         1 HXH      -0.063000
     18 O20         -4.4840    -1.2560     0.4780 os         1 HXH      -0.258200
     19 C21         -5.2410    -0.1190     0.3280 ca         1 HXH       0.097100
     20 C22         -5.8160     0.1650    -0.9030 ca         1 HXH      -0.117000
     21 C23         -6.6200     1.2900    -1.0320 ca         1 HXH      -0.102000
     22 C24         -6.8410     2.1230     0.0580 ca         1 HXH      -0.111000
     23 C25         -6.2580     1.8260     1.2830 ca         1 HXH      -0.102000
     24 C26         -5.4510     0.7050     1.4230 ca         1 HXH      -0.117000
     25 H1           3.1930    -0.3020    -1.6660 h1         1 HXH       0.081700
     26 HN1          1.6880    -0.6020     0.8040 hn         1 HXH       0.416000
     27 H2           3.4680     1.1510     0.9800 h1         1 HXH       0.039700
     28 HO2          3.5110     2.8950    -0.6090 ho         1 HXH       0.519000
     29 H3           5.4760     0.8230    -1.2850 h1         1 HXH       0.059700
     30 HO3          6.5800     2.4710    -0.1470 ho         1 HXH       0.464000
     31 H4           5.7260     0.3880     1.7130 h1         1 HXH       0.051700
     32 HO4          7.7150    -0.3650     1.1140 ho         1 HXH       0.508000
     33 H5           5.7450    -2.1500     0.8620 ha         1 HXH       0.179000
     34 H6           3.5970    -2.4310    -0.1660 ha         1 HXH       0.179000
     35 H10          1.1190    -1.1940    -1.9920 h1         1 HXH       0.034700
     36 H10A         1.3600    -2.4430    -0.7870 h1         1 HXH       0.034700
     37 H12         -0.6270     0.7600    -0.8720 ha         1 HXH       0.121000
     38 H13         -2.9990     0.8830    -0.2960 ha         1 HXH       0.127000
     39 H15         -3.0170    -3.3420     0.4670 ha         1 HXH       0.127000
     40 H16         -0.6320    -3.4450    -0.1240 ha         1 HXH       0.121000
     41 H22         -5.6440    -0.4900    -1.7480 ha         1 HXH       0.128500
     42 H23         -7.0750     1.5130    -1.9880 ha         1 HXH       0.116000
     43 H24         -7.4690     2.9970    -0.0470 ha         1 HXH       0.116000
     44 H25         -6.4290     2.4700     2.1360 ha         1 HXH       0.116000
     45 H26         -4.9940     0.4680     2.3760 ha         1 HXH       0.128500
@<TRIPOS>BOND
     1     1     2 1   
     2     1     3 1   
     3     1    10 1   
     4     1    25 1   
     5     2    11 1   
     6     2    26 1   
     7     3     4 1   
     8     3     5 1   
     9     3    27 1   
    10     4    28 1   
    11     5     6 1   
    12     5     7 1   
    13     5    29 1   
    14     6    30 1   
    15     7     8 1   
    16     7     9 1   
    17     7    31 1   
    18     8    32 1   
    19     9    10 2   
    20     9    33 1   
    21    10    34 1   
    22    11    12 1   
    23    11    35 1   
    24    11    36 1   
    25    12    13 ar  
    26    12    17 ar  
    27    13    14 ar  
    28    13    37 1   
    29    14    15 ar  
    30    14    38 1   
    31    15    16 ar  
    32    15    18 1   
    33    16    17 ar  
    34    16    39 1   
    35    17    40 1   
    36    18    19 1   
    37    19    20 ar  
    38    19    24 ar  
    39    20    21 ar  
    40    20    41 1   
    41    21    22 ar  
    42    21    42 1   
    43    22    23 ar  
    44    22    43 1   
    45    23    24 ar  
    46    23    44 1   
    47    24    45 1   
@<TRIPOS>SUBSTRUCTURE
     1 HXH         1 TEMP              0 ****  ****    0 ROOT
