@<TRIPOS>MOLECULE
HXH
   45    47     1     0     0
SMALL
No Charge or Current Charge


@<TRIPOS>ATOM
      1 C1           3.2970    -0.0430    -0.7320 c6         1 HXH       0.207700
      2 N1           1.8950    -0.1020    -0.2500 n7         1 HXH      -0.856400
      3 C2           4.1220     1.0940    -0.0200 c6         1 HXH       0.192300
      4 O2           3.7750     2.4090    -0.5000 oh         1 HXH      -0.702000
      5 C3           5.6440     0.8680    -0.2390 c6         1 HXH       0.134300
      6 O3           6.4130     1.9660     0.2960 oh         1 HXH      -0.671000
      7 C4           6.0680    -0.4740     0.4250 c6         1 HXH       0.168500
      8 O4           7.4350    -0.7720     0.1190 oh         1 HXH      -0.723000
      9 C5           5.1760    -1.6110    -0.0450 c2         1 HXH      -0.238200
     10 C6           3.9400    -1.4180    -0.5460 c2         1 HXH      -0.244200
     11 C10          0.9020    -0.8050    -1.0810 c3         1 HXH       0.220100
     12 C11         -0.4730    -0.7200    -0.4350 ca         1 HXH      -0.127300
     13 C12         -1.2730     0.4250    -0.6180 ca         1 HXH      -0.063000
     14 C13         -2.5460     0.5030    -0.0260 ca         1 HXH      -0.166500
     15 C14         -3.0300    -0.5690     0.7470 ca         1 HXH       0.139100
     16 C15         -2.2300    -1.7060     0.9440 ca         1 HXH      -0.166500
     17 C16         -0.9570    -1.7850     0.3520 ca         1 HXH      -0.063000
     18 O20         -4.2670    -0.5120     1.3490 os         1 HXH      -0.258200
     19 C21         -5.3700     0.0480     0.7430 ca         1 HXH       0.097100
     20 C22         -5.6070    -0.1190    -0.6370 ca         1 HXH      -0.117000
     21 C23         -6.7490     0.4510    -1.2270 ca         1 HXH      -0.102000
     22 C24         -7.6580     1.1790    -0.4390 ca         1 HXH      -0.111000
     23 C25         -7.4290     1.3340     0.9390 ca         1 HXH      -0.102000
     24 C26         -6.2870     0.7640     1.5300 ca         1 HXH      -0.117000
     25 H1           3.2940     0.1880    -1.8090 h1         1 HXH       0.081700
     26 HN1          1.8860    -0.5170     0.6870 hn         1 HXH       0.416000
     27 H2           3.9300     1.0330     1.0620 h1         1 HXH       0.039700
     28 HO2          4.5820     2.9430    -0.3010 ho         1 HXH       0.519000
     29 H3           5.8240     0.7810    -1.3220 h1         1 HXH       0.059700
     30 HO3          7.3340     1.6200     0.3620 ho         1 HXH       0.464000
     31 H4           5.9420    -0.3720     1.5150 h1         1 HXH       0.051700
     32 HO4          7.6680    -1.5860     0.6230 ho         1 HXH       0.508000
     33 H5           5.5790    -2.6210     0.0520 ha         1 HXH       0.179000
     34 H6           3.3530    -2.2760    -0.8740 ha         1 HXH       0.179000
     35 H10          0.8560    -0.3570    -2.0830 h1         1 HXH       0.034700
     36 H10A         1.1710    -1.8620    -1.2080 h1         1 HXH       0.034700
     37 H12         -0.9030     1.2570    -1.2150 ha         1 HXH       0.121000
     38 H13         -3.1490     1.3970    -0.1640 ha         1 HXH       0.127000
     39 H15         -2.6000    -2.5280     1.5510 ha         1 HXH       0.127000
     40 H16         -0.3470    -2.6730     0.5060 ha         1 HXH       0.121000
     41 H22         -4.9130    -0.6900    -1.2490 ha         1 HXH       0.128500
     42 H23         -6.9310     0.3260    -2.2920 ha         1 HXH       0.116000
     43 H24         -8.5420     1.6190    -0.8970 ha         1 HXH       0.116000
     44 H25         -8.1360     1.8930     1.5490 ha         1 HXH       0.116000
     45 H26         -6.1100     0.8810     2.5960 ha         1 HXH       0.128500
@<TRIPOS>BOND
     1     1     2 1   
     2     1     3 1   
     3     1    10 1   
     4     1    25 1   
     5     2    11 1   
     6     2    26 1   
     7     3     4 1   
     8     3     5 1   
     9     3    27 1   
    10     4    28 1   
    11     5     6 1   
    12     5     7 1   
    13     5    29 1   
    14     6    30 1   
    15     7     8 1   
    16     7     9 1   
    17     7    31 1   
    18     8    32 1   
    19     9    10 2   
    20     9    33 1   
    21    10    34 1   
    22    11    12 1   
    23    11    35 1   
    24    11    36 1   
    25    12    13 ar  
    26    12    17 ar  
    27    13    14 ar  
    28    13    37 1   
    29    14    15 ar  
    30    14    38 1   
    31    15    16 ar  
    32    15    18 1   
    33    16    17 ar  
    34    16    39 1   
    35    17    40 1   
    36    18    19 1   
    37    19    20 ar  
    38    19    24 ar  
    39    20    21 ar  
    40    20    41 1   
    41    21    22 ar  
    42    21    42 1   
    43    22    23 ar  
    44    22    43 1   
    45    23    24 ar  
    46    23    44 1   
    47    24    45 1   
@<TRIPOS>SUBSTRUCTURE
     1 HXH         1 TEMP              0 ****  ****    0 ROOT
