@<TRIPOS>MOLECULE
HXJ
   73    72     1     0     0
SMALL
No Charge or Current Charge


@<TRIPOS>ATOM
      1 CAA         -8.8960    -1.9160    -3.4410 c3         1 HXJ      -0.089100
      2 CAL         -8.1170    -1.9230    -2.1120 c3         1 HXJ      -0.075400
      3 CAO         -6.6760    -1.3850    -2.2520 c3         1 HXJ      -0.076400
      4 CAQ         -5.8950    -1.3930    -0.9200 c3         1 HXJ      -0.073400
      5 CAN         -4.4550    -0.8560    -1.0580 c3         1 HXJ      -0.042200
      6 CAJ         -3.7100    -0.8750     0.2600 c2         1 HXJ      -0.217200
      7 CAK         -2.6210    -1.6160     0.5220 c2         1 HXJ      -0.249200
      8 CBA         -1.8530    -1.6180     1.8270 c3         1 HXJ       0.189500
      9 OAH         -1.9930    -2.9250     2.3900 oh         1 HXJ      -0.646000
     10 CBB         -0.3450    -1.2620     1.6320 c3         1 HXJ       0.079700
     11 NAW         -0.1740    -0.0350     0.8280 ns         1 HXJ      -0.499900
     12 CAZ         -0.6670     1.2150     1.1300 c          1 HXJ       0.612100
     13 OAF         -1.3360     1.4460     2.1270 o          1 HXJ      -0.589100
     14 CAT         -0.3490     2.2890     0.0810 c3         1 HXJ      -0.146400
     15 CAR          0.7830     3.2310     0.5530 c3         1 HXJ      -0.086400
     16 CAP          1.1390     4.3140    -0.4880 c3         1 HXJ      -0.072400
     17 CAM          2.3230     5.2030    -0.0520 c3         1 HXJ      -0.081400
     18 CAB          2.6890     6.2740    -1.0980 c3         1 HXJ      -0.089100
     19 CAV          0.4330    -1.2170     2.9850 c3         1 HXJ       0.207600
     20 OAY          1.8520    -1.4060     2.7880 os         1 HXJ      -0.604400
     21 PBD          2.8550    -0.2130     2.3630 p5         1 HXJ       1.383800
     22 OAI          4.2640    -0.5460     2.7240 o          1 HXJ      -0.814500
     23 OAG          2.4340     1.0860     2.9600 o          1 HXJ      -0.814500
     24 OAX          2.6470    -0.2380     0.7680 os         1 HXJ      -0.577400
     25 CAS          3.2360    -1.2960     0.0070 c3         1 HXJ       0.214600
     26 CAU          2.9960    -1.0140    -1.4970 c3         1 HXJ       0.084600
     27 NBC          3.7020     0.1890    -2.1670 n4         1 HXJ      -0.484000
     28 CAD          5.2250     0.0630    -2.0200 c3         1 HXJ       0.071567
     29 CAE          3.3470     0.1970    -3.6600 c3         1 HXJ       0.071567
     30 CAC          3.2400     1.5130    -1.5460 c3         1 HXJ       0.071567
     31 H1          -8.9740    -0.8970    -3.8390 hc         1 HXJ       0.031033
     32 H2          -8.3950    -2.5430    -4.1880 hc         1 HXJ       0.031033
     33 H3          -9.9100    -2.3050    -3.2920 hc         1 HXJ       0.031033
     34 H4          -8.6610    -1.3170    -1.3770 hc         1 HXJ       0.036700
     35 H5          -8.0860    -2.9480    -1.7220 hc         1 HXJ       0.036700
     36 H6          -6.1360    -1.9920    -2.9900 hc         1 HXJ       0.036700
     37 H7          -6.7100    -0.3610    -2.6440 hc         1 HXJ       0.036700
     38 H8          -6.4350    -0.7860    -0.1820 hc         1 HXJ       0.039200
     39 H9          -5.8580    -2.4170    -0.5280 hc         1 HXJ       0.039200
     40 H10         -3.9210    -1.4560    -1.8050 hc         1 HXJ       0.043200
     41 H11         -4.4870     0.1690    -1.4470 hc         1 HXJ       0.043200
     42 H12         -4.1210    -0.2040     1.0190 ha         1 HXJ       0.176000
     43 H13         -2.2030    -2.2760    -0.2410 ha         1 HXJ       0.174000
     44 H14         -2.2970    -0.8720     2.5030 h1         1 HXJ       0.113700
     45 H15         -2.9420    -3.1610     2.3050 ho         1 HXJ       0.436000
     46 H16          0.0930    -2.0780     1.0420 h1         1 HXJ       0.046700
     47 H17          0.4240    -0.0900     0.0140 hn         1 HXJ       0.299500
     48 H18         -0.0260     1.8130    -0.8530 hc         1 HXJ       0.035700
     49 H19         -1.2490     2.8890    -0.0980 hc         1 HXJ       0.035700
     50 H20          0.4860     3.7140     1.4930 hc         1 HXJ       0.080700
     51 H21          1.6760     2.6340     0.7750 hc         1 HXJ       0.080700
     52 H22          1.3850     3.8330    -1.4430 hc         1 HXJ       0.018200
     53 H23          0.2590     4.9450    -0.6660 hc         1 HXJ       0.018200
     54 H24          2.0770     5.6990     0.8950 hc         1 HXJ       0.045700
     55 H25          3.2020     4.5740     0.1350 hc         1 HXJ       0.045700
     56 H26          2.9760     5.8070    -2.0470 hc         1 HXJ       0.027700
     57 H27          1.8390     6.9430    -1.2820 hc         1 HXJ       0.027700
     58 H28          3.5320     6.8810    -0.7450 hc         1 HXJ       0.027700
     59 H29          0.2230    -0.2710     3.5020 h1         1 HXJ       0.057200
     60 H30          0.0620    -2.0180     3.6360 h1         1 HXJ       0.057200
     61 H32          4.3130    -1.3760     0.1970 h1         1 HXJ       0.056700
     62 H33          2.7720    -2.2560     0.2660 h1         1 HXJ       0.056700
     63 H34          3.3060    -1.9030    -2.0490 hx         1 HXJ       0.078700
     64 H35          1.9230    -0.8890    -1.6520 hx         1 HXJ       0.078700
     65 H36          5.5530    -0.8810    -2.4590 hx         1 HXJ       0.095700
     66 H37          5.7060     0.8960    -2.5370 hx         1 HXJ       0.095700
     67 H38          5.4890     0.0890    -0.9610 hx         1 HXJ       0.095700
     68 H39          3.6820    -0.7380    -4.1150 hx         1 HXJ       0.095700
     69 H40          2.2650     0.2930    -3.7720 hx         1 HXJ       0.095700
     70 H41          3.8430     1.0400    -4.1440 hx         1 HXJ       0.095700
     71 H42          3.7160     2.3440    -2.0700 hx         1 HXJ       0.095700
     72 H43          2.1550     1.5930    -1.6350 hx         1 HXJ       0.095700
     73 H44          3.5230     1.5350    -0.4920 hx         1 HXJ       0.095700
@<TRIPOS>BOND
     1     1     2 1   
     2     1    31 1   
     3     1    32 1   
     4     1    33 1   
     5     2     3 1   
     6     2    34 1   
     7     2    35 1   
     8     3     4 1   
     9     3    36 1   
    10     3    37 1   
    11     4     5 1   
    12     4    38 1   
    13     4    39 1   
    14     5     6 1   
    15     5    40 1   
    16     5    41 1   
    17     6     7 2   
    18     6    42 1   
    19     7     8 1   
    20     7    43 1   
    21     8     9 1   
    22     8    10 1   
    23     8    44 1   
    24     9    45 1   
    25    10    11 1   
    26    10    19 1   
    27    10    46 1   
    28    11    12 1   
    29    11    47 1   
    30    12    13 2   
    31    12    14 1   
    32    14    15 1   
    33    14    48 1   
    34    14    49 1   
    35    15    16 1   
    36    15    50 1   
    37    15    51 1   
    38    16    17 1   
    39    16    52 1   
    40    16    53 1   
    41    17    18 1   
    42    17    54 1   
    43    17    55 1   
    44    18    56 1   
    45    18    57 1   
    46    18    58 1   
    47    19    20 1   
    48    19    59 1   
    49    19    60 1   
    50    20    21 1   
    51    21    22 1   
    52    21    23 1   
    53    21    24 1   
    54    24    25 1   
    55    25    26 1   
    56    25    61 1   
    57    25    62 1   
    58    26    27 1   
    59    26    63 1   
    60    26    64 1   
    61    27    28 1   
    62    27    29 1   
    63    27    30 1   
    64    28    65 1   
    65    28    66 1   
    66    28    67 1   
    67    29    68 1   
    68    29    69 1   
    69    29    70 1   
    70    30    71 1   
    71    30    72 1   
    72    30    73 1   
@<TRIPOS>SUBSTRUCTURE
     1 HXJ         1 TEMP              0 ****  ****    0 ROOT
