@<TRIPOS>MOLECULE
HXJ
   73    72     1     0     0
SMALL
bcc


@<TRIPOS>ATOM
      1 CAA         -9.3380    -1.6210    -3.2290 c3         1 HXJ      -0.089100
      2 CAL         -8.2970    -2.1470    -2.2500 c3         1 HXJ      -0.075400
      3 CAO         -7.5720    -1.0340    -1.5070 c3         1 HXJ      -0.076400
      4 CAQ         -6.5040    -1.5430    -0.5460 c3         1 HXJ      -0.073400
      5 CAN         -5.8280    -0.4140     0.2290 c3         1 HXJ      -0.042200
      6 CAJ         -4.7400    -0.8970     1.1360 c2         1 HXJ      -0.167200
      7 CAK         -3.4930    -0.4360     1.1090 c2         1 HXJ      -0.199200
      8 CBA         -2.3780    -0.8950     2.0070 c3         1 HXJ       0.166300
      9 OAH         -2.7070    -2.0510     2.7390 oh         1 HXJ      -0.583800
     10 CBB         -1.0690    -1.1250     1.2170 c3         1 HXJ       0.079700
     11 NAW         -0.7130    -0.0240     0.3440 ns         1 HXJ      -0.566900
     12 CAZ         -0.4850     1.2430     0.7320 c          1 HXJ       0.679100
     13 OAF         -0.6570     1.6320     1.8790 o          1 HXJ      -0.589100
     14 CAT         -0.0510     2.1840    -0.3710 c3         1 HXJ      -0.146400
     15 CAR          1.0560     3.1320     0.0770 c3         1 HXJ      -0.086400
     16 CAP          1.6040     3.9740    -1.0650 c3         1 HXJ      -0.072400
     17 CAM          2.6930     4.9400    -0.6140 c3         1 HXJ      -0.081400
     18 CAB          3.3500     5.6790    -1.7710 c3         1 HXJ      -0.089100
     19 CAV          0.0890    -1.4970     2.1410 c3         1 HXJ       0.184400
     20 OAY          1.2170    -1.8200     1.3460 os         1 HXJ      -0.581200
     21 PBD          2.6590    -1.1510     1.7110 p5         1 HXJ       1.383800
     22 OAI          3.2330    -1.7670     2.9480 o          1 HXJ      -0.814500
     23 OAG          2.6080     0.3450     1.5880 o          1 HXJ      -0.814500
     24 OAX          3.3880    -1.7800     0.3720 os         1 HXJ      -0.554200
     25 CAS          4.7140    -1.3880     0.1070 c3         1 HXJ       0.191400
     26 CAU          4.9140    -1.0010    -1.3410 c3         1 HXJ       0.112800
     27 NBC          4.2830     0.2840    -1.8170 n4         1 HXJ      -0.596800
     28 CAD          4.6960     1.4330    -0.9660 c3         1 HXJ       0.099767
     29 CAE          4.7640     0.5150    -3.2090 c3         1 HXJ       0.099767
     30 CAC          2.7920     0.2010    -1.8400 c3         1 HXJ       0.099767
     31 H1         -10.0940    -1.0230    -2.7170 hc         1 HXJ       0.031033
     32 H2          -8.8790    -0.9860    -3.9900 hc         1 HXJ       0.031033
     33 H3          -9.8520    -2.4340    -3.7440 hc         1 HXJ       0.031033
     34 H4          -8.7790    -2.8110    -1.5260 hc         1 HXJ       0.036700
     35 H5          -7.5670    -2.7610    -2.7860 hc         1 HXJ       0.036700
     36 H6          -7.1080    -0.3560    -2.2320 hc         1 HXJ       0.036700
     37 H7          -8.3020    -0.4320    -0.9540 hc         1 HXJ       0.036700
     38 H8          -6.9550    -2.2490     0.1600 hc         1 HXJ       0.039200
     39 H9          -5.7500    -2.1070    -1.1040 hc         1 HXJ       0.039200
     40 H10         -5.4230     0.3240    -0.4690 hc         1 HXJ       0.043200
     41 H11         -6.5910     0.1060     0.8200 hc         1 HXJ       0.043200
     42 H12         -5.0180    -1.6680     1.8500 ha         1 HXJ       0.126000
     43 H13         -3.2450     0.3460     0.3980 ha         1 HXJ       0.124000
     44 H14         -2.1940    -0.1210     2.7560 h1         1 HXJ       0.113700
     45 H15         -2.9290    -2.7520     2.1140 ho         1 HXJ       0.397000
     46 H16         -1.2500    -1.9710     0.5450 h1         1 HXJ       0.046700
     47 H17         -0.5110    -0.2620    -0.6120 hn         1 HXJ       0.299500
     48 H18          0.2610     1.6270    -1.2580 hc         1 HXJ       0.035700
     49 H19         -0.9290     2.7620    -0.6780 hc         1 HXJ       0.035700
     50 H20          0.6710     3.7860     0.8630 hc         1 HXJ       0.080700
     51 H21          1.8650     2.5520     0.5290 hc         1 HXJ       0.080700
     52 H22          2.0050     3.3170    -1.8460 hc         1 HXJ       0.018200
     53 H23          0.7930     4.5350    -1.5430 hc         1 HXJ       0.018200
     54 H24          2.2660     5.6600     0.0900 hc         1 HXJ       0.045700
     55 H25          3.4560     4.3890    -0.0530 hc         1 HXJ       0.045700
     56 H26          3.8460     4.9850    -2.4530 hc         1 HXJ       0.027700
     57 H27          2.6150     6.2390    -2.3530 hc         1 HXJ       0.027700
     58 H28          4.1010     6.3870    -1.4190 hc         1 HXJ       0.027700
     59 H29          0.2870    -0.6700     2.8290 h1         1 HXJ       0.057200
     60 H30         -0.1840    -2.3660     2.7430 h1         1 HXJ       0.057200
     61 H32          5.0640    -0.5910     0.7690 h1         1 HXJ       0.056700
     62 H33          5.3900    -2.2320     0.2690 h1         1 HXJ       0.056700
     63 H34          5.9850    -0.8920    -1.5120 hx         1 HXJ       0.078700
     64 H35          4.5480    -1.7880    -2.0010 hx         1 HXJ       0.078700
     65 H36          5.7810     1.4680    -0.9080 hx         1 HXJ       0.095700
     66 H37          4.3320     2.3530    -1.4200 hx         1 HXJ       0.095700
     67 H38          4.2630     1.3280     0.0250 hx         1 HXJ       0.095700
     68 H39          5.8450     0.6300    -3.2020 hx         1 HXJ       0.095700
     69 H40          4.4890    -0.3350    -3.8280 hx         1 HXJ       0.095700
     70 H41          4.3020     1.4170    -3.6000 hx         1 HXJ       0.095700
     71 H42          2.4150     1.0520    -2.4020 hx         1 HXJ       0.095700
     72 H43          2.4900    -0.7170    -2.3370 hx         1 HXJ       0.095700
     73 H44          2.4100     0.2290    -0.8260 hx         1 HXJ       0.095700
@<TRIPOS>BOND
     1     1     2 1   
     2     1    31 1   
     3     1    32 1   
     4     1    33 1   
     5     2     3 1   
     6     2    34 1   
     7     2    35 1   
     8     3     4 1   
     9     3    36 1   
    10     3    37 1   
    11     4     5 1   
    12     4    38 1   
    13     4    39 1   
    14     5     6 1   
    15     5    40 1   
    16     5    41 1   
    17     6     7 2   
    18     6    42 1   
    19     7     8 1   
    20     7    43 1   
    21     8     9 1   
    22     8    10 1   
    23     8    44 1   
    24     9    45 1   
    25    10    11 1   
    26    10    19 1   
    27    10    46 1   
    28    11    12 1   
    29    11    47 1   
    30    12    13 2   
    31    12    14 1   
    32    14    15 1   
    33    14    48 1   
    34    14    49 1   
    35    15    16 1   
    36    15    50 1   
    37    15    51 1   
    38    16    17 1   
    39    16    52 1   
    40    16    53 1   
    41    17    18 1   
    42    17    54 1   
    43    17    55 1   
    44    18    56 1   
    45    18    57 1   
    46    18    58 1   
    47    19    20 1   
    48    19    59 1   
    49    19    60 1   
    50    20    21 1   
    51    21    22 1   
    52    21    23 1   
    53    21    24 1   
    54    24    25 1   
    55    25    26 1   
    56    25    61 1   
    57    25    62 1   
    58    26    27 1   
    59    26    63 1   
    60    26    64 1   
    61    27    28 1   
    62    27    29 1   
    63    27    30 1   
    64    28    65 1   
    65    28    66 1   
    66    28    67 1   
    67    29    68 1   
    68    29    69 1   
    69    29    70 1   
    70    30    71 1   
    71    30    72 1   
    72    30    73 1   
@<TRIPOS>SUBSTRUCTURE
     1 HXJ         1 TEMP              0 ****  ****    0 ROOT
