@<TRIPOS>MOLECULE
HXK
   54    55     1     0     0
SMALL
No Charge or Current Charge


@<TRIPOS>ATOM
      1 CAA         11.8080    -2.3770     0.3710 c3         1 HXK      -0.088100
      2 OAB         -6.3930    -1.4500    -2.3640 o          1 HXK      -0.701000
      3 OAC         -4.8580    -2.7300    -1.5540 o          1 HXK      -0.701000
      4 CAE         -6.6680    -0.4210     2.5300 ca         1 HXK      -0.124000
      5 CAF         -7.5650    -1.2430     1.8340 ca         1 HXK      -0.153000
      6 CAG         -5.4480    -0.0510     1.9410 ca         1 HXK      -0.162000
      7 CAH         -7.2400    -1.7000     0.5470 ca         1 HXK      -0.078000
      8 CAI         -1.3710     2.8000    -0.3350 ca         1 HXK      -0.172000
      9 CAJ          1.0270     2.5430    -0.6510 ca         1 HXK      -0.308000
     10 CAK         -0.2160     0.9130     0.6600 ca         1 HXK      -0.170000
     11 CAL         10.7930    -1.3230    -0.1100 c3         1 HXK      -0.074400
     12 CAM          9.3520    -1.6090     0.3660 c3         1 HXK      -0.076400
     13 CAN          8.3350    -0.5520    -0.1160 c3         1 HXK      -0.074400
     14 CAO          6.8940    -0.8380     0.3610 c3         1 HXK      -0.075400
     15 CAP          5.8770     0.2200    -0.1210 c3         1 HXK      -0.072400
     16 CAQ          4.4360    -0.0660     0.3550 c3         1 HXK      -0.083400
     17 CAR          3.4230     0.9900    -0.1270 c3         1 HXK       0.170600
     18 OAT          2.1300     0.6170     0.3770 os         1 HXK      -0.349100
     19 SAU         -3.5610    -0.0210    -0.1490 ss         1 HXK      -0.005000
     20 CAV         -5.7090    -1.8590    -1.4370 c          1 HXK       0.710600
     21 CAW         -0.1590     3.2530    -0.8730 ca         1 HXK       0.166100
     22 CAX         -1.4080     1.6260     0.4380 ca         1 HXK       0.027700
     23 CAY          0.9990     1.3630     0.1220 ca         1 HXK       0.179100
     24 CAZ         -5.1090    -0.5030     0.6450 ca         1 HXK      -0.079000
     25 CBA         -6.0150    -1.3410    -0.0540 ca         1 HXK      -0.127600
     26 HAA         11.8380    -2.4170     1.4660 hc         1 HXK       0.030367
     27 HAAA        11.5420    -3.3720    -0.0050 hc         1 HXK       0.030367
     28 HAAB        12.8140    -2.1320     0.0090 hc         1 HXK       0.030367
     29 HOAD         0.7910     4.5400    -1.9050 ho         1 HXK       0.454000
     30 HAE         -6.9190    -0.0680     3.5280 ha         1 HXK       0.082000
     31 HAF         -8.5100    -1.5270     2.2900 ha         1 HXK       0.088000
     32 HAG         -4.7810     0.5890     2.5080 ha         1 HXK       0.088000
     33 HAH         -7.9390    -2.3380     0.0100 ha         1 HXK       0.130000
     34 HAI         -2.2840     3.3610    -0.5180 ha         1 HXK       0.132000
     35 HAJ          1.9550     2.9110    -1.0780 ha         1 HXK       0.104000
     36 HAK         -0.2310     0.0020     1.2530 ha         1 HXK       0.136000
     37 HAL         11.1070    -0.3360     0.2520 hc         1 HXK       0.035200
     38 HALA        10.8130    -1.2830    -1.2060 hc         1 HXK       0.035200
     39 HAM          9.0430    -2.5980     0.0040 hc         1 HXK       0.037700
     40 HAMA         9.3370    -1.6500     1.4630 hc         1 HXK       0.037700
     41 HAN          8.6440     0.4370     0.2460 hc         1 HXK       0.035700
     42 HANA         8.3500    -0.5110    -1.2120 hc         1 HXK       0.035700
     43 HAO          6.5850    -1.8270    -0.0010 hc         1 HXK       0.040200
     44 HAOA         6.8790    -0.8790     1.4570 hc         1 HXK       0.040200
     45 HAP          6.1860     1.2080     0.2410 hc         1 HXK       0.036200
     46 HAPA         5.8920     0.2610    -1.2180 hc         1 HXK       0.036200
     47 HAQ          4.1220    -1.0530    -0.0090 hc         1 HXK       0.056700
     48 HAQA         4.4170    -0.1040     1.4510 hc         1 HXK       0.056700
     49 HAR          3.7170     1.9780     0.2510 h1         1 HXK       0.029200
     50 HARA         3.4180     1.0190    -1.2240 h1         1 HXK       0.029200
     51 HAS         -3.3830     1.9820     1.2210 h1         1 HXK       0.057700
     52 HASA        -2.5310     0.6050     1.9660 h1         1 HXK       0.057700
     53 CAS         -2.7200     1.1310     1.0220 c3         1 HXK      -0.001100
     54 OAD         -0.1340     4.3890    -1.6190 oh         1 HXK      -0.539100
@<TRIPOS>BOND
     1     1    11 1   
     2     1    26 1   
     3     1    27 1   
     4     1    28 1   
     5     2    20 1   
     6     3    20 1   
     7     4     5 ar  
     8     4     6 ar  
     9     4    30 1   
    10     5     7 ar  
    11     5    31 1   
    12     6    24 ar  
    13     6    32 1   
    14     7    25 ar  
    15     7    33 1   
    16     8    21 ar  
    17     8    22 ar  
    18     8    34 1   
    19     9    21 ar  
    20     9    23 ar  
    21     9    35 1   
    22    10    22 ar  
    23    10    23 ar  
    24    10    36 1   
    25    11    12 1   
    26    11    37 1   
    27    11    38 1   
    28    12    13 1   
    29    12    39 1   
    30    12    40 1   
    31    13    14 1   
    32    13    41 1   
    33    13    42 1   
    34    14    15 1   
    35    14    43 1   
    36    14    44 1   
    37    15    16 1   
    38    15    45 1   
    39    15    46 1   
    40    16    17 1   
    41    16    47 1   
    42    16    48 1   
    43    17    18 1   
    44    17    49 1   
    45    17    50 1   
    46    18    23 1   
    47    19    24 1   
    48    19    53 1   
    49    20    25 1   
    50    21    54 1   
    51    22    53 1   
    52    24    25 ar  
    53    29    54 1   
    54    51    53 1   
    55    52    53 1   
@<TRIPOS>SUBSTRUCTURE
     1 HXK         1 TEMP              0 ****  ****    0 ROOT
