@<TRIPOS>MOLECULE
HXK
   54    55     1     0     0
SMALL
abcg2


@<TRIPOS>ATOM
      1 CAA         11.5360    -2.4780     0.2060 c3         1 HXK      -0.088100
      2 OAB         -6.0320    -2.9760    -1.8150 o          1 HXK      -0.701000
      3 OAC         -4.1450    -1.7940    -1.8090 o          1 HXK      -0.701000
      4 CAE         -6.4970    -0.2920     2.3540 ca         1 HXK      -0.124000
      5 CAF         -7.2940    -1.2460     1.7390 ca         1 HXK      -0.153000
      6 CAG         -5.2900     0.0830     1.7840 ca         1 HXK      -0.162000
      7 CAH         -6.8580    -1.8140     0.5540 ca         1 HXK      -0.078000
      8 CAI         -1.3280     2.8650    -0.3270 ca         1 HXK      -0.172000
      9 CAJ          1.0560     2.5470    -0.6040 ca         1 HXK      -0.308000
     10 CAK         -0.2320     0.9980     0.7310 ca         1 HXK      -0.170000
     11 CAL         10.5740    -1.3430    -0.1210 c3         1 HXK      -0.074400
     12 CAM          9.1380    -1.6500     0.2840 c3         1 HXK      -0.076400
     13 CAN          8.1620    -0.5290    -0.0530 c3         1 HXK      -0.074400
     14 CAO          6.7290    -0.8420     0.3610 c3         1 HXK      -0.075400
     15 CAP          5.7400     0.2570    -0.0090 c3         1 HXK      -0.072400
     16 CAQ          4.3190    -0.0640     0.4390 c3         1 HXK      -0.083400
     17 CAR          3.3350     0.9980    -0.0030 c3         1 HXK       0.170600
     18 OAT          2.0510     0.6380     0.4870 os         1 HXK      -0.349100
     19 SAU         -3.3060    -0.0010    -0.1430 ss         1 HXK      -0.005000
     20 CAV         -5.2470    -2.1390    -1.3350 c          1 HXK       0.710600
     21 CAW         -0.1100     3.2690    -0.8580 ca         1 HXK       0.166100
     22 CAX         -1.3810     1.7310     0.4760 ca         1 HXK       0.027700
     23 CAY          0.9880     1.4060     0.1910 ca         1 HXK       0.179100
     24 CAZ         -4.8470    -0.4870     0.5860 ca         1 HXK      -0.079000
     25 CBA         -5.6500    -1.4590    -0.0400 ca         1 HXK      -0.127600
     26 HAA         11.5570    -2.6800     1.2780 hc         1 HXK       0.030367
     27 HAAA        11.2390    -3.4010    -0.2960 hc         1 HXK       0.030367
     28 HAAB        12.5540    -2.2440    -0.1060 hc         1 HXK       0.030367
     29 HOAD         0.7910     4.5560    -1.9490 ho         1 HXK       0.454000
     30 HAE         -6.8080     0.1690     3.2830 ha         1 HXK       0.082000
     31 HAF         -8.2380    -1.5420     2.1760 ha         1 HXK       0.088000
     32 HAG         -4.7020     0.8270     2.2980 ha         1 HXK       0.088000
     33 HAH         -7.4660    -2.5610     0.0600 ha         1 HXK       0.130000
     34 HAI         -2.2250     3.4360    -0.5340 ha         1 HXK       0.132000
     35 HAJ          1.9930     2.8870    -1.0270 ha         1 HXK       0.104000
     36 HAK         -0.2710     0.1090     1.3490 ha         1 HXK       0.136000
     37 HAL         10.9040    -0.4270     0.3790 hc         1 HXK       0.035200
     38 HALA        10.6110    -1.1310    -1.1940 hc         1 HXK       0.035200
     39 HAM          8.8120    -2.5730    -0.2090 hc         1 HXK       0.037700
     40 HAMA         9.1000    -1.8530     1.3600 hc         1 HXK       0.037700
     41 HAN          8.4880     0.3960     0.4340 hc         1 HXK       0.035700
     42 HANA         8.1940    -0.3330    -1.1300 hc         1 HXK       0.035700
     43 HAO          6.4130    -1.7810    -0.1050 hc         1 HXK       0.040200
     44 HAOA         6.6930    -1.0140     1.4420 hc         1 HXK       0.040200
     45 HAP          6.0620     1.2030     0.4370 hc         1 HXK       0.036200
     46 HAPA         5.7610     0.4080    -1.0940 hc         1 HXK       0.036200
     47 HAQ          4.0140    -1.0310     0.0270 hc         1 HXK       0.056700
     48 HAQA         4.2910    -0.1580     1.5280 hc         1 HXK       0.056700
     49 HAR          3.6270     1.9810     0.3860 h1         1 HXK       0.029200
     50 HARA         3.3210     1.0660    -1.0970 h1         1 HXK       0.029200
     51 HAS         -3.3980     2.0960     1.1020 h1         1 HXK       0.057700
     52 HASA        -2.5620     0.8360     2.0230 h1         1 HXK       0.057700
     53 CAS         -2.6960     1.2640     1.0290 c3         1 HXK      -0.001100
     54 OAD         -0.0990     4.3780    -1.6250 oh         1 HXK      -0.539100
@<TRIPOS>BOND
     1     1    11 1   
     2     1    26 1   
     3     1    27 1   
     4     1    28 1   
     5     2    20 1   
     6     3    20 1   
     7     4     5 ar  
     8     4     6 ar  
     9     4    30 1   
    10     5     7 ar  
    11     5    31 1   
    12     6    24 ar  
    13     6    32 1   
    14     7    25 ar  
    15     7    33 1   
    16     8    21 ar  
    17     8    22 ar  
    18     8    34 1   
    19     9    21 ar  
    20     9    23 ar  
    21     9    35 1   
    22    10    22 ar  
    23    10    23 ar  
    24    10    36 1   
    25    11    12 1   
    26    11    37 1   
    27    11    38 1   
    28    12    13 1   
    29    12    39 1   
    30    12    40 1   
    31    13    14 1   
    32    13    41 1   
    33    13    42 1   
    34    14    15 1   
    35    14    43 1   
    36    14    44 1   
    37    15    16 1   
    38    15    45 1   
    39    15    46 1   
    40    16    17 1   
    41    16    47 1   
    42    16    48 1   
    43    17    18 1   
    44    17    49 1   
    45    17    50 1   
    46    18    23 1   
    47    19    24 1   
    48    19    53 1   
    49    20    25 1   
    50    21    54 1   
    51    22    53 1   
    52    24    25 ar  
    53    29    54 1   
    54    51    53 1   
    55    52    53 1   
@<TRIPOS>SUBSTRUCTURE
     1 HXK         1 TEMP              0 ****  ****    0 ROOT
