@<TRIPOS>MOLECULE
HXL
   46    49     1     0     0
SMALL
bcc


@<TRIPOS>ATOM
      1 N1          41.8560    63.0070    10.4310 n2         1 HXL      -0.826100
      2 N2          40.1460    63.2460     8.8290 nv         1 HXL      -0.963800
      3 C1          41.0520    63.7190     9.7380 ce         1 HXL       0.660800
      4 C2          41.1080    65.2010     9.8680 ca         1 HXL      -0.173900
      5 C3          41.5650    65.7510    11.0570 ca         1 HXL      -0.013000
      6 C4          41.6020    67.1360    11.1770 ca         1 HXL       0.061400
      7 N3          41.9850    67.9190    12.2350 nc         1 HXL      -0.569100
      8 C5          41.8250    69.1530    11.8330 cd         1 HXL       0.475400
      9 N4          41.3530    69.2250    10.5560 na         1 HXL      -0.258300
     10 C6          41.1970    67.9470    10.1030 ca         1 HXL      -0.068200
     11 C7          40.7510    67.4150     8.9000 ca         1 HXL      -0.143000
     12 C8          40.7110    66.0360     8.8050 ca         1 HXL      -0.094000
     13 C9          42.1050    70.3300    12.6510 ca         1 HXL      -0.138900
     14 C10         42.5590    70.1580    13.9590 ca         1 HXL      -0.074500
     15 C11         42.8250    71.2430    14.7740 ca         1 HXL      -0.171000
     16 C12         42.6390    72.5310    14.2790 ca         1 HXL       0.142100
     17 C13         42.1920    72.7220    12.9780 ca         1 HXL      -0.171000
     18 C14         41.9230    71.6280    12.1760 ca         1 HXL      -0.074500
     19 O1          42.8220    73.6470    15.0360 os         1 HXL      -0.253200
     20 C15         43.7750    73.6730    16.0150 ca         1 HXL       0.125100
     21 C16         45.0810    73.2590    15.7780 ca         1 HXL      -0.163000
     22 C17         46.0220    73.3760    16.7850 ca         1 HXL      -0.077000
     23 C18         45.6830    73.8960    18.0320 ca         1 HXL      -0.156900
     24 C19         44.3710    74.3110    18.2460 ca         1 HXL      -0.077000
     25 C20         43.4170    74.1980    17.2460 ca         1 HXL      -0.163000
     26 C21         46.7310    74.0220    19.0820 ce         1 HXL       0.661800
     27 N5          47.9530    74.1030    18.7160 n2         1 HXL      -0.827100
     28 N6          46.2680    74.0940    20.3640 nv         1 HXL      -0.965800
     29 HN1         41.6870    62.0150    10.2830 hn         1 HXL       0.369400
     30 HN21        39.9710    62.2530     8.8330 hn         1 HXL       0.402300
     31 HN22        39.3190    63.7930     8.6550 hn         1 HXL       0.402300
     32 H3          41.8720    65.1130    11.8750 ha         1 HXL       0.169000
     33 HN4         41.1510    70.0610    10.0300 hn         1 HXL       0.306700
     34 H7          40.4500    68.0420     8.0710 ha         1 HXL       0.137000
     35 H8          40.3810    65.5990     7.8720 ha         1 HXL       0.137000
     36 H10         42.7010    69.1590    14.3480 ha         1 HXL       0.143000
     37 H11         43.1620    71.0770    15.7880 ha         1 HXL       0.150500
     38 H13         42.0480    73.7250    12.5980 ha         1 HXL       0.150500
     39 H14         41.5770    71.8170    11.1680 ha         1 HXL       0.143000
     40 H16         45.3700    72.8560    14.8150 ha         1 HXL       0.149500
     41 H17         47.0400    73.0610    16.6000 ha         1 HXL       0.149500
     42 H19         44.0740    74.7440    19.1920 ha         1 HXL       0.149500
     43 H20         42.4000    74.5270    17.4200 ha         1 HXL       0.149500
     44 HN5         48.5760    74.1560    19.5170 hn         1 HXL       0.372400
     45 HN61        46.9490    74.0490    21.1050 hn         1 HXL       0.405800
     46 HN62        45.4030    73.6290    20.5880 hn         1 HXL       0.405800
@<TRIPOS>BOND
     1     1     3 2   
     2     1    29 1   
     3     2     3 1   
     4     2    30 1   
     5     2    31 1   
     6     3     4 1   
     7     4     5 ar  
     8     4    12 ar  
     9     5     6 ar  
    10     5    32 1   
    11     6     7 1   
    12     6    10 ar  
    13     7     8 2   
    14     8     9 1   
    15     8    13 1   
    16     9    10 1   
    17     9    33 1   
    18    10    11 ar  
    19    11    12 ar  
    20    11    34 1   
    21    12    35 1   
    22    13    14 ar  
    23    13    18 ar  
    24    14    15 ar  
    25    14    36 1   
    26    15    16 ar  
    27    15    37 1   
    28    16    17 ar  
    29    16    19 1   
    30    17    18 ar  
    31    17    38 1   
    32    18    39 1   
    33    19    20 1   
    34    20    21 ar  
    35    20    25 ar  
    36    21    22 ar  
    37    21    40 1   
    38    22    23 ar  
    39    22    41 1   
    40    23    24 ar  
    41    23    26 1   
    42    24    25 ar  
    43    24    42 1   
    44    25    43 1   
    45    26    27 2   
    46    26    28 1   
    47    27    44 1   
    48    28    45 1   
    49    28    46 1   
@<TRIPOS>SUBSTRUCTURE
     1 HXL         1 TEMP              0 ****  ****    0 ROOT
