@<TRIPOS>MOLECULE
HXL
   46    49     1     0     0
SMALL
No Charge or Current Charge


@<TRIPOS>ATOM
      1 N1          41.6460    62.8690    10.5120 n2         1 HXL      -0.826100
      2 N2          40.3550    63.1110     8.6850 nv         1 HXL      -1.074200
      3 C1          41.0880    63.6500     9.6820 ce         1 HXL       0.660800
      4 C2          41.1030    65.1400     9.8210 ca         1 HXL      -0.173900
      5 C3          41.4760    65.7270    11.0590 ca         1 HXL       0.005000
      6 C4          41.5160    67.1260    11.1740 ca         1 HXL       0.061400
      7 N3          41.8430    67.8800    12.2860 nc         1 HXL      -0.569100
      8 C5          41.7220    69.1480    11.8360 cd         1 HXL       0.475400
      9 N4          41.3330    69.2230    10.4890 na         1 HXL      -0.308600
     10 C6          41.2140    67.9170    10.1090 ca         1 HXL      -0.068200
     11 C7          40.8600    67.3970     8.8610 ca         1 HXL      -0.125000
     12 C8          40.8120    65.9950     8.7180 ca         1 HXL      -0.076000
     13 C9          41.9810    70.3200    12.7050 ca         1 HXL      -0.138900
     14 C10         42.3750    70.1490    14.0530 ca         1 HXL      -0.056500
     15 C11         42.6200    71.2620    14.8760 ca         1 HXL      -0.153000
     16 C12         42.4840    72.5630    14.3620 ca         1 HXL       0.142100
     17 C13         42.0810    72.7460    13.0330 ca         1 HXL      -0.153000
     18 C14         41.8340    71.6360    12.2060 ca         1 HXL      -0.056500
     19 O1          42.7040    73.6690    15.1520 os         1 HXL      -0.253200
     20 C15         43.7120    73.7320    16.0880 ca         1 HXL       0.125100
     21 C16         44.9780    73.1740    15.8350 ca         1 HXL      -0.145000
     22 C17         45.9950    73.2670    16.8020 ca         1 HXL      -0.059000
     23 C18         45.7610    73.9110    18.0400 ca         1 HXL      -0.156900
     24 C19         44.4920    74.4990    18.2640 ca         1 HXL      -0.059000
     25 C20         43.4780    74.4050    17.2950 ca         1 HXL      -0.145000
     26 C21         46.8640    74.0310    19.0480 ce         1 HXL       0.661800
     27 N5          48.0900    73.8670    18.7630 n2         1 HXL      -0.827100
     28 N6          46.5260    74.2150    20.3430 nv         1 HXL      -1.076200
     29 HN1         41.6680    61.9310    10.0970 hn         1 HXL       0.369400
     30 HN21        40.0080    62.1740     8.8500 hn         1 HXL       0.457500
     31 HN22        39.6970    63.7420     8.2420 hn         1 HXL       0.457500
     32 H3          41.7250    65.1130    11.9210 ha         1 HXL       0.151000
     33 HN4         41.1820    70.0580     9.9410 hn         1 HXL       0.357000
     34 H7          40.6360    68.0510     8.0210 ha         1 HXL       0.119000
     35 H8          40.5590    65.5810     7.7450 ha         1 HXL       0.119000
     36 H10         42.4910    69.1520    14.4740 ha         1 HXL       0.125000
     37 H11         42.9110    71.1090    15.9130 ha         1 HXL       0.132500
     38 H13         41.9630    73.7530    12.6390 ha         1 HXL       0.132500
     39 H14         41.5280    71.8110    11.1780 ha         1 HXL       0.125000
     40 H16         45.1790    72.6770    14.8900 ha         1 HXL       0.131500
     41 H17         46.9670    72.8290    16.5860 ha         1 HXL       0.131500
     42 H19         44.2860    75.0430    19.1830 ha         1 HXL       0.131500
     43 H20         42.5070    74.8590    17.4790 ha         1 HXL       0.131500
     44 HN5         48.6470    74.2020    19.5570 hn         1 HXL       0.372400
     45 HN61        47.1960    73.8770    21.0240 hn         1 HXL       0.461000
     46 HN62        45.5560    74.0280    20.5670 hn         1 HXL       0.461000
@<TRIPOS>BOND
     1     1     3 2   
     2     1    29 1   
     3     2     3 1   
     4     2    30 1   
     5     2    31 1   
     6     3     4 1   
     7     4     5 ar  
     8     4    12 ar  
     9     5     6 ar  
    10     5    32 1   
    11     6     7 1   
    12     6    10 ar  
    13     7     8 2   
    14     8     9 1   
    15     8    13 1   
    16     9    10 1   
    17     9    33 1   
    18    10    11 ar  
    19    11    12 ar  
    20    11    34 1   
    21    12    35 1   
    22    13    14 ar  
    23    13    18 ar  
    24    14    15 ar  
    25    14    36 1   
    26    15    16 ar  
    27    15    37 1   
    28    16    17 ar  
    29    16    19 1   
    30    17    18 ar  
    31    17    38 1   
    32    18    39 1   
    33    19    20 1   
    34    20    21 ar  
    35    20    25 ar  
    36    21    22 ar  
    37    21    40 1   
    38    22    23 ar  
    39    22    41 1   
    40    23    24 ar  
    41    23    26 1   
    42    24    25 ar  
    43    24    42 1   
    44    25    43 1   
    45    26    27 2   
    46    26    28 1   
    47    27    44 1   
    48    28    45 1   
    49    28    46 1   
@<TRIPOS>SUBSTRUCTURE
     1 HXL         1 TEMP              0 ****  ****    0 ROOT
