@<TRIPOS>MOLECULE
HXM
   58    59     1     0     0
SMALL
abcg2


@<TRIPOS>ATOM
      1 C10          2.3340     3.7800     0.5260 c3         1 HXM       0.226500
      2 C12          2.7190     4.4400    -0.7970 c3         1 HXM      -0.105100
      3 C13          0.6840     1.9880     0.8890 c3         1 HXM       0.181800
      4 C14         -0.3810     1.8890    -0.2020 c3         1 HXM       0.156300
      5 C17         -3.8170     0.6820    -0.4200 ca         1 HXM       0.153100
      6 C18         -4.3000     0.4340     0.8630 ca         1 HXM      -0.165500
      7 C19         -5.5960    -0.0360     1.0320 ca         1 HXM      -0.066500
      8 C22         -4.6530     0.4620    -1.5190 ca         1 HXM      -0.165500
      9 C01          6.9300    -0.7920     0.6690 ca         1 HXM      -0.095000
     10 C02          6.6900    -1.9790    -0.0070 ca         1 HXM       0.115000
     11 C03          5.6130    -2.0630    -0.8820 ca         1 HXM       0.120000
     12 C04          4.7830    -0.9690    -1.0730 ca         1 HXM      -0.095000
     13 C05          5.0160     0.2260    -0.4020 ca         1 HXM      -0.069300
     14 C06          6.0990     0.2980     0.4700 ca         1 HXM      -0.102000
     15 C08          3.0100     1.3740     0.5210 c3         1 HXM       0.214800
     16 N09          1.9760     2.3710     0.3600 n3         1 HXM      -0.793600
     17 C11          3.3830     4.0370     1.6090 c3         1 HXM      -0.105100
     18 C15         -1.6780     1.3490     0.3750 c3         1 HXM       0.127600
     19 O16         -2.5810     1.1320    -0.6940 os         1 HXM      -0.324100
     20 C20         -6.4280    -0.2460    -0.0580 ca         1 HXM       0.187000
     21 C21         -5.9450     0.0120    -1.3390 ca         1 HXM      -0.066500
     22 S24         -8.1310    -2.2890    -0.1500 s6         1 HXM       1.187100
     23 C25         -7.2450    -3.2220     1.0770 c3         1 HXM      -0.383100
     24 O26         -9.5570    -2.4190     0.1030 o          1 HXM      -0.526000
     25 O27         -7.5980    -2.6400    -1.4550 o          1 HXM      -0.526000
     26 O28         -0.5790     3.1070    -0.8820 oh         1 HXM      -0.627000
     27 CL2          7.7310    -3.3300     0.2440 cl         1 HXM      -0.173000
     28 H1           1.4250     4.2870     0.8570 h1         1 HXM       0.034700
     29 H2           1.9250     4.2950    -1.5290 hc         1 HXM       0.039200
     30 H3           2.8640     5.5140    -0.6610 hc         1 HXM       0.039200
     31 H4           3.6420     4.0370    -1.2140 hc         1 HXM       0.039200
     32 H5           0.3430     2.6860     1.6670 h1         1 HXM       0.034200
     33 H6           0.7490     1.0160     1.3880 h1         1 HXM       0.034200
     34 H7          -0.0170     1.1840    -0.9570 h1         1 HXM       0.096700
     35 H8          -3.6880     0.5870     1.7410 ha         1 HXM       0.129000
     36 H9          -5.9570    -0.2330     2.0340 ha         1 HXM       0.127500
     37 H10         -4.2820     0.6610    -2.5160 ha         1 HXM       0.129000
     38 H12          7.7690    -0.7230     1.3470 ha         1 HXM       0.132000
     39 H13          3.9480    -1.0520    -1.7570 ha         1 HXM       0.133000
     40 H14          6.3040     1.2190     1.0020 ha         1 HXM       0.120000
     41 H17          2.5290     0.3950     0.4750 h1         1 HXM       0.029200
     42 H18          3.5060     1.4140     1.5040 h1         1 HXM       0.029200
     43 H20          3.4900     5.1090     1.7760 hc         1 HXM       0.039200
     44 H21          3.0950     3.5820     2.5580 hc         1 HXM       0.039200
     45 H22          4.3690     3.6540     1.3370 hc         1 HXM       0.039200
     46 H23         -1.4850     0.4100     0.9070 h1         1 HXM       0.035200
     47 H24         -2.0990     2.0580     1.0990 h1         1 HXM       0.035200
     48 H25         -6.5870    -0.1300    -2.1970 ha         1 HXM       0.127500
     49 H26         -7.5730    -2.9160     2.0670 h1         1 HXM       0.101367
     50 H27         -7.4670    -4.2760     0.9190 h1         1 HXM       0.101367
     51 H28         -6.1770    -3.0500     0.9630 h1         1 HXM       0.101367
     52 H29         -0.8040     3.7860    -0.2370 ho         1 HXM       0.432000
     53 N23         -7.7670    -0.6900     0.1170 nu         1 HXM      -0.870100
     54 C07          4.0860     1.3920    -0.5700 c3         1 HXM      -0.041100
     55 CL1          5.2960    -3.5230    -1.7430 cl         1 HXM      -0.173000
     56 H11         -8.2340    -0.3300     0.9430 hn         1 HXM       0.487000
     57 H15          4.6670     2.3150    -0.5320 hc         1 HXM       0.061700
     58 H16          3.5990     1.3590    -1.5470 hc         1 HXM       0.061700
@<TRIPOS>BOND
     1     1     2 1   
     2     1    16 1   
     3     1    17 1   
     4     1    28 1   
     5     2    29 1   
     6     2    30 1   
     7     2    31 1   
     8     3     4 1   
     9     3    16 1   
    10     3    32 1   
    11     3    33 1   
    12     4    18 1   
    13     4    26 1   
    14     4    34 1   
    15     5     6 ar  
    16     5     8 ar  
    17     5    19 1   
    18     6     7 ar  
    19     6    35 1   
    20     7    20 ar  
    21     7    36 1   
    22     8    21 ar  
    23     8    37 1   
    24     9    10 ar  
    25     9    14 ar  
    26     9    38 1   
    27    10    11 ar  
    28    10    27 1   
    29    11    12 ar  
    30    11    55 1   
    31    12    13 ar  
    32    12    39 1   
    33    13    14 ar  
    34    13    54 1   
    35    14    40 1   
    36    15    16 1   
    37    15    41 1   
    38    15    42 1   
    39    15    54 1   
    40    17    43 1   
    41    17    44 1   
    42    17    45 1   
    43    18    19 1   
    44    18    46 1   
    45    18    47 1   
    46    20    21 ar  
    47    20    53 1   
    48    21    48 1   
    49    22    23 1   
    50    22    24 2   
    51    22    25 2   
    52    22    53 1   
    53    23    49 1   
    54    23    50 1   
    55    23    51 1   
    56    26    52 1   
    57    53    56 1   
    58    54    57 1   
    59    54    58 1   
@<TRIPOS>SUBSTRUCTURE
     1 HXM         1 TEMP              0 ****  ****    0 ROOT
