@<TRIPOS>MOLECULE
HXM
   58    59     1     0     0
SMALL
No Charge or Current Charge


@<TRIPOS>ATOM
      1 C10          2.1870     3.4000    -0.7450 c3         1 HXM       0.226500
      2 C12          3.0260     3.6150    -2.0260 c3         1 HXM      -0.105100
      3 C13          0.9230     1.6790     0.5880 c3         1 HXM       0.181800
      4 C14         -0.4880     1.9210    -0.0400 c3         1 HXM       0.156300
      5 C17         -3.9760     0.5880     0.2880 ca         1 HXM       0.153100
      6 C18         -3.9870    -0.4940     1.1930 ca         1 HXM      -0.165500
      7 C19         -5.1930    -1.1620     1.4750 ca         1 HXM      -0.066500
      8 C22         -5.1750     0.9880    -0.3200 ca         1 HXM      -0.165500
      9 C01          7.3930    -0.1560     1.7330 ca         1 HXM      -0.095000
     10 C02          7.5010    -1.4620     1.2240 ca         1 HXM       0.115000
     11 C03          6.6770    -1.8680     0.1550 ca         1 HXM       0.120000
     12 C04          5.7510    -0.9660    -0.3980 ca         1 HXM      -0.095000
     13 C05          5.6410     0.3440     0.1090 ca         1 HXM      -0.069300
     14 C06          6.4660     0.7430     1.1780 ca         1 HXM      -0.102000
     15 C08          3.3550     1.4210     0.3740 c3         1 HXM       0.214800
     16 N09          2.1200     1.9760    -0.2690 n3         1 HXM      -0.793600
     17 C11          2.5620     4.4220     0.3540 c3         1 HXM      -0.105100
     18 C15         -1.5450     0.9480     0.5380 c3         1 HXM       0.127600
     19 O16         -2.8270     1.2830    -0.0290 os         1 HXM      -0.324100
     20 C20         -6.3980    -0.7700     0.8630 ca         1 HXM       0.187000
     21 C21         -6.3790     0.3180    -0.0360 ca         1 HXM      -0.066500
     22 S24         -9.0130    -1.5850     0.3630 s6         1 HXM       1.187100
     23 C25         -8.5760    -2.1630    -1.2640 c3         1 HXM      -0.383100
     24 O26         -9.7560    -2.6380     1.0560 o          1 HXM      -0.526000
     25 O27         -9.5540    -0.2270     0.2740 o          1 HXM      -0.526000
     26 O28         -0.9350     3.2780     0.1810 oh         1 HXM      -0.627000
     27 Cl2          8.6740    -2.5670     1.9430 cl         1 HXM      -0.173000
     28 H1           1.1800     3.6800    -1.0730 h1         1 HXM       0.034700
     29 H2           2.8960     2.7780    -2.7230 hc         1 HXM       0.039200
     30 H3           2.6950     4.5270    -2.5360 hc         1 HXM       0.039200
     31 H4           4.0910     3.7410    -1.8130 hc         1 HXM       0.039200
     32 H5           0.9850     2.2290     1.5370 h1         1 HXM       0.034200
     33 H6           0.9600     0.6140     0.8590 h1         1 HXM       0.034200
     34 H7          -0.4140     1.7110    -1.1170 h1         1 HXM       0.096700
     35 H8          -3.0780    -0.8290     1.6850 ha         1 HXM       0.129000
     36 H9          -5.1880    -1.9940     2.1760 ha         1 HXM       0.127500
     37 H10         -5.1720     1.8240    -1.0150 ha         1 HXM       0.129000
     38 H12          8.0280     0.1580     2.5580 ha         1 HXM       0.132000
     39 H13          5.1170    -1.2890    -1.2210 ha         1 HXM       0.133000
     40 H14          6.3890     1.7520     1.5800 ha         1 HXM       0.120000
     41 H17          3.1340     0.3950     0.7000 h1         1 HXM       0.029200
     42 H18          3.5930     1.9810     1.2890 h1         1 HXM       0.029200
     43 H20          2.4750     5.4440    -0.0320 hc         1 HXM       0.039200
     44 H21          1.8950     4.3360     1.2190 hc         1 HXM       0.039200
     45 H22          3.5940     4.2770     0.6950 hc         1 HXM       0.039200
     46 H23         -1.2670    -0.0830     0.2820 h1         1 HXM       0.035200
     47 H24         -1.5690     1.0420     1.6320 h1         1 HXM       0.035200
     48 H25         -7.2890     0.6600    -0.5180 ha         1 HXM       0.127500
     49 H26         -8.0590    -3.1210    -1.1470 h1         1 HXM       0.101367
     50 H27         -9.5050    -2.2800    -1.8300 h1         1 HXM       0.101367
     51 H28         -7.9250    -1.4140    -1.7240 h1         1 HXM       0.101367
     52 H29         -1.9020     3.2730     0.0060 ho         1 HXM       0.432000
     53 N23         -7.5680    -1.4710     1.1810 nu         1 HXM      -0.870100
     54 C07          4.6330     1.3190    -0.4860 c3         1 HXM      -0.041100
     55 Cl1          6.7830    -3.4990    -0.5090 cl         1 HXM      -0.173000
     56 H11         -7.4970    -2.3090     1.7450 hn         1 HXM       0.487000
     57 H15          5.1010     2.3050    -0.5600 hc         1 HXM       0.061700
     58 H16          4.3600     1.0100    -1.5020 hc         1 HXM       0.061700
@<TRIPOS>BOND
     1     1     2 1   
     2     1    16 1   
     3     1    17 1   
     4     1    28 1   
     5     2    29 1   
     6     2    30 1   
     7     2    31 1   
     8     3     4 1   
     9     3    16 1   
    10     3    32 1   
    11     3    33 1   
    12     4    18 1   
    13     4    26 1   
    14     4    34 1   
    15     5     6 ar  
    16     5     8 ar  
    17     5    19 1   
    18     6     7 ar  
    19     6    35 1   
    20     7    20 ar  
    21     7    36 1   
    22     8    21 ar  
    23     8    37 1   
    24     9    10 ar  
    25     9    14 ar  
    26     9    38 1   
    27    10    11 ar  
    28    10    27 1   
    29    11    12 ar  
    30    11    55 1   
    31    12    13 ar  
    32    12    39 1   
    33    13    14 ar  
    34    13    54 1   
    35    14    40 1   
    36    15    16 1   
    37    15    41 1   
    38    15    42 1   
    39    15    54 1   
    40    17    43 1   
    41    17    44 1   
    42    17    45 1   
    43    18    19 1   
    44    18    46 1   
    45    18    47 1   
    46    20    21 ar  
    47    20    53 1   
    48    21    48 1   
    49    22    23 1   
    50    22    24 2   
    51    22    25 2   
    52    22    53 1   
    53    23    49 1   
    54    23    50 1   
    55    23    51 1   
    56    26    52 1   
    57    53    56 1   
    58    54    57 1   
    59    54    58 1   
@<TRIPOS>SUBSTRUCTURE
     1 HXM         1 TEMP              0 ****  ****    0 ROOT
