@<TRIPOS>MOLECULE
HXN
   50    51     1     0     0
SMALL
bcc


@<TRIPOS>ATOM
      1 BR           6.7290    55.2470    59.2390 br         1 HXN      -0.099100
      2 C14          5.7380    53.7300    59.7730 ca         1 HXN      -0.062900
      3 C13          6.2110    52.4730    59.4960 ca         1 HXN      -0.039000
      4 C15          4.5110    53.9140    60.4330 ca         1 HXN      -0.069000
      5 C16          3.7460    52.8260    60.7550 ca         1 HXN      -0.202300
      6 C17          4.1770    51.5140    60.4480 ca         1 HXN       0.495600
      7 C12          5.4630    51.3480    59.8880 ca         1 HXN      -0.343600
      8 C7           5.8550    49.9780    59.6700 ca         1 HXN       0.750200
      9 N3           7.1210    49.6370    59.2770 nh         1 HXN      -0.773300
     10 C9           8.2780    50.1830    59.9620 c3         1 HXN       0.222800
     11 C10          8.7330    49.3720    61.1900 c3         1 HXN      -0.056300
     12 C11          9.5060    48.1790    60.8840 c1         1 HXN       0.208700
     13 N4          10.1410    47.2480    60.6500 n1         1 HXN      -0.367800
     14 C8           7.3040    48.3130    58.7110 c3         1 HXN       0.198100
     15 N2           4.9820    49.0140    59.7900 nb         1 HXN      -0.841000
     16 N5           3.3310    50.4860    60.6500 nb         1 HXN      -0.806000
     17 C6           3.7390    49.3000    60.2400 ca         1 HXN       0.954900
     18 N1           2.8790    48.2590    60.3140 nh         1 HXN      -0.762300
     19 C5           3.2100    46.9760    59.7310 c3         1 HXN       0.217100
     20 C4           1.4880    48.4950    60.6500 c3         1 HXN       0.227800
     21 C3           0.6560    48.9830    59.4670 c3         1 HXN      -0.106400
     22 C2          -0.7880    49.2250    59.8830 c3         1 HXN       0.169800
     23 N           -1.6770    49.5210    58.7750 n3         1 HXN      -0.712600
     24 C1          -3.0570    49.5090    59.2120 c3         1 HXN       0.149600
     25 C           -1.3590    50.7750    58.1260 c3         1 HXN       0.149600
     26 H1           7.1340    52.3510    58.9460 ha         1 HXN       0.149000
     27 H2           4.1530    54.9090    60.6610 ha         1 HXN       0.148000
     28 H3           2.7800    52.9580    61.2240 ha         1 HXN       0.152000
     29 H4           8.0570    51.1750    60.3380 h1         1 HXN       0.069700
     30 H5           9.1020    50.2860    59.2550 h1         1 HXN       0.069700
     31 H6           7.8780    49.0890    61.8070 hc         1 HXN       0.081200
     32 H7           9.3670    50.0130    61.8050 hc         1 HXN       0.081200
     33 H8           6.5580    48.1330    57.9400 h1         1 HXN       0.046700
     34 H9           8.2900    48.2710    58.2490 h1         1 HXN       0.046700
     35 H10          7.2230    47.5070    59.4440 h1         1 HXN       0.046700
     36 H11          4.2580    46.7390    59.8890 h1         1 HXN       0.044367
     37 H12          2.6070    46.2070    60.2100 h1         1 HXN       0.044367
     38 H13          3.0140    46.9410    58.6560 h1         1 HXN       0.044367
     39 H14          1.4350    49.2170    61.4650 h1         1 HXN       0.059700
     40 H15          1.0800    47.5560    61.0300 h1         1 HXN       0.059700
     41 H16          0.6790    48.2430    58.6600 hc         1 HXN       0.056200
     42 H17          1.1100    49.8980    59.0820 hc         1 HXN       0.056200
     43 H18         -0.8170    50.0230    60.6480 h1         1 HXN       0.028700
     44 H19         -1.1640    48.3200    60.3710 h1         1 HXN       0.028700
     45 H21         -3.3090    48.5350    59.6350 h1         1 HXN       0.030367
     46 H22         -3.2800    50.2740    59.9740 h1         1 HXN       0.030367
     47 H23         -3.7190    49.6870    58.3640 h1         1 HXN       0.030367
     48 H24         -0.3620    50.7460    57.6860 h1         1 HXN       0.030367
     49 H25         -2.0660    50.9590    57.3160 h1         1 HXN       0.030367
     50 H26         -1.3990    51.6390    58.8090 h1         1 HXN       0.030367
@<TRIPOS>BOND
     1     1     2 1   
     2     2     3 ar  
     3     2     4 ar  
     4     3     7 ar  
     5     3    26 1   
     6     4     5 ar  
     7     4    27 1   
     8     5     6 ar  
     9     5    28 1   
    10     6     7 ar  
    11     6    16 ar  
    12     7     8 ar  
    13     8     9 1   
    14     8    15 ar  
    15     9    10 1   
    16     9    14 1   
    17    10    11 1   
    18    10    29 1   
    19    10    30 1   
    20    11    12 1   
    21    11    31 1   
    22    11    32 1   
    23    12    13 3   
    24    14    33 1   
    25    14    34 1   
    26    14    35 1   
    27    15    17 ar  
    28    16    17 ar  
    29    17    18 1   
    30    18    19 1   
    31    18    20 1   
    32    19    36 1   
    33    19    37 1   
    34    19    38 1   
    35    20    21 1   
    36    20    39 1   
    37    20    40 1   
    38    21    22 1   
    39    21    41 1   
    40    21    42 1   
    41    22    23 1   
    42    22    43 1   
    43    22    44 1   
    44    23    24 1   
    45    23    25 1   
    46    24    45 1   
    47    24    46 1   
    48    24    47 1   
    49    25    48 1   
    50    25    49 1   
    51    25    50 1   
@<TRIPOS>SUBSTRUCTURE
     1 HXN         1 TEMP              0 ****  ****    0 ROOT
