@<TRIPOS>MOLECULE
HXN
   50    51     1     0     0
SMALL
No Charge or Current Charge


@<TRIPOS>ATOM
      1 Br           7.1980    55.4170    59.6010 br         1 HXN      -0.099100
      2 C14          6.0260    53.9270    59.8520 ca         1 HXN      -0.062900
      3 C13          6.4830    52.6260    59.5880 ca         1 HXN      -0.021000
      4 C15          4.7110    54.1380    60.2960 ca         1 HXN      -0.051000
      5 C16          3.8480    53.0430    60.4670 ca         1 HXN      -0.119000
      6 C17          4.2890    51.7330    60.2060 ca         1 HXN       0.102000
      7 C12          5.6190    51.5240    59.7760 ca         1 HXN      -0.213000
      8 C7           6.0190    50.1930    59.5320 ca         1 HXN       0.421900
      9 N3           7.3320    49.8410    59.1520 nh         1 HXN      -0.773300
     10 C9           8.4370    49.8940    60.1450 c3         1 HXN       0.222800
     11 C10          8.1490    49.1790    61.4830 c3         1 HXN      -0.056300
     12 C11          7.9580    47.7330    61.3360 c1         1 HXN       0.297900
     13 N4           7.8230    46.5790    61.2470 n1         1 HXN      -0.457000
     14 C8           7.5480    49.0040    57.9510 c3         1 HXN       0.198100
     15 N2           5.1690    49.1660    59.6770 nb         1 HXN      -0.315000
     16 N5           3.4520    50.6900    60.3590 nb         1 HXN      -0.280000
     17 C6           3.9220    49.4550    60.0850 ca         1 HXN       0.428900
     18 N1           3.0300    48.3600    60.2480 nh         1 HXN      -0.762300
     19 C5           3.4590    46.9690    59.9470 c3         1 HXN       0.217100
     20 C4           1.6220    48.5470    60.6830 c3         1 HXN       0.227800
     21 C3           0.6650    48.8790    59.5220 c3         1 HXN      -0.106400
     22 C2          -0.7890    49.0830    60.0000 c3         1 HXN       0.169800
     23 N           -1.7830    49.2600    58.9120 n3         1 HXN      -0.712600
     24 C1          -3.1730    49.2120    59.4180 c3         1 HXN       0.149600
     25 C           -1.5470    50.4580    58.0700 c3         1 HXN       0.149600
     26 H1           7.4980    52.4860    59.2270 ha         1 HXN       0.131000
     27 H2           4.3580    55.1470    60.4990 ha         1 HXN       0.130000
     28 H3           2.8280    53.2120    60.8020 ha         1 HXN       0.134000
     29 H4           8.6780    50.9420    60.3680 h1         1 HXN       0.069700
     30 H5           9.3510    49.4600    59.7140 h1         1 HXN       0.069700
     31 H6           7.2620    49.6120    61.9590 hc         1 HXN       0.081200
     32 H7           8.9900    49.3470    62.1650 hc         1 HXN       0.081200
     33 H8           6.7580    49.1830    57.2090 h1         1 HXN       0.046700
     34 H9           8.5100    49.2470    57.4790 h1         1 HXN       0.046700
     35 H10          7.5440    47.9380    58.2150 h1         1 HXN       0.046700
     36 H11          4.2710    46.6630    60.6190 h1         1 HXN       0.044367
     37 H12          2.6300    46.2600    60.0720 h1         1 HXN       0.044367
     38 H13          3.8090    46.8900    58.9090 h1         1 HXN       0.044367
     39 H14          1.5590    49.3410    61.4410 h1         1 HXN       0.059700
     40 H15          1.2630    47.6360    61.1820 h1         1 HXN       0.059700
     41 H16          0.6940    48.0640    58.7890 hc         1 HXN       0.056200
     42 H17          1.0220    49.7840    59.0200 hc         1 HXN       0.056200
     43 H18         -0.8180    49.9470    60.6770 h1         1 HXN       0.028700
     44 H19         -1.0660    48.2020    60.5960 h1         1 HXN       0.028700
     45 H21         -3.3560    48.2770    59.9660 h1         1 HXN       0.030367
     46 H22         -3.3730    50.0520    60.0970 h1         1 HXN       0.030367
     47 H23         -3.8920    49.2610    58.5890 h1         1 HXN       0.030367
     48 H24         -0.5740    50.4030    57.5630 h1         1 HXN       0.030367
     49 H25         -2.3160    50.5410    57.2910 h1         1 HXN       0.030367
     50 H26         -1.5720    51.3740    58.6750 h1         1 HXN       0.030367
@<TRIPOS>BOND
     1     1     2 1   
     2     2     3 ar  
     3     2     4 ar  
     4     3     7 ar  
     5     3    26 1   
     6     4     5 ar  
     7     4    27 1   
     8     5     6 ar  
     9     5    28 1   
    10     6     7 ar  
    11     6    16 ar  
    12     7     8 ar  
    13     8     9 1   
    14     8    15 ar  
    15     9    10 1   
    16     9    14 1   
    17    10    11 1   
    18    10    29 1   
    19    10    30 1   
    20    11    12 1   
    21    11    31 1   
    22    11    32 1   
    23    12    13 3   
    24    14    33 1   
    25    14    34 1   
    26    14    35 1   
    27    15    17 ar  
    28    16    17 ar  
    29    17    18 1   
    30    18    19 1   
    31    18    20 1   
    32    19    36 1   
    33    19    37 1   
    34    19    38 1   
    35    20    21 1   
    36    20    39 1   
    37    20    40 1   
    38    21    22 1   
    39    21    41 1   
    40    21    42 1   
    41    22    23 1   
    42    22    43 1   
    43    22    44 1   
    44    23    24 1   
    45    23    25 1   
    46    24    45 1   
    47    24    46 1   
    48    24    47 1   
    49    25    48 1   
    50    25    49 1   
    51    25    50 1   
@<TRIPOS>SUBSTRUCTURE
     1 HXN         1 TEMP              0 ****  ****    0 ROOT
