@<TRIPOS>MOLECULE
HXO
   45    45     1     0     0
SMALL
No Charge or Current Charge


@<TRIPOS>ATOM
      1 C4           1.8110   -11.7780     9.1770 c          1 HXO       0.593100
      2 C5           3.6560   -10.2050     9.9360 c3         1 HXO       0.036700
      3 C6          -1.6280   -15.1610     8.4420 c3         1 HXO      -0.177100
      4 C11          3.0030    -8.8130     9.7540 c3         1 HXO      -0.110100
      5 C12          5.2030   -10.1540     9.7440 c          1 HXO       0.593100
      6 N1           0.1470   -13.4860     8.4440 ns         1 HXO      -0.502900
      7 N2           3.0490   -11.1900     9.0110 ns         1 HXO      -0.499900
      8 C3          -0.3000   -14.6620     7.8910 c          1 HXO       0.603100
      9 C1           1.2390   -12.0760     6.6740 c3         1 HXO      -0.060100
     10 C2           1.3870   -12.7730     8.0560 c3         1 HXO       0.041700
     11 O2           0.3230   -15.2620     7.0280 o          1 HXO      -0.611100
     12 O3           1.1110   -11.5340    10.1530 o          1 HXO      -0.601100
     13 O8           5.7760   -10.7200     8.8170 o          1 HXO      -0.576100
     14 O9           7.3390    -9.4940    10.8000 oh         1 HXO      -0.413100
     15 S12         -3.4230    -8.0750     6.4670 sy         1 HXO       1.140600
     16 C21         -1.2010   -11.5010     6.2190 ca         1 HXO      -0.123000
     17 N21         -3.3540    -7.5850     4.9090 n8         1 HXO      -0.994100
     18 O21         -3.0880    -6.8740     7.2280 o          1 HXO      -0.529000
     19 C23          0.0820   -11.0820     6.6190 ca         1 HXO      -0.024300
     20 O24         -4.7030    -8.7710     6.5960 o          1 HXO      -0.529000
     21 C31          0.2880    -9.7330     6.9660 ca         1 HXO      -0.123000
     22 C41         -0.7740    -8.8140     6.9230 ca         1 HXO      -0.014500
     23 C51         -2.0600    -9.2400     6.5270 ca         1 HXO      -0.317500
     24 C61         -2.2680   -10.5890     6.1730 ca         1 HXO      -0.014500
     25 H1           3.4780   -10.5430    10.9650 h1         1 HXO       0.081700
     26 H2          -1.9500   -16.1010     7.9800 hc         1 HXO       0.063700
     27 H3          -1.5530   -15.2500     9.5310 hc         1 HXO       0.063700
     28 H4          -2.3810   -14.3730     8.3230 hc         1 HXO       0.063700
     29 H5           3.4080    -8.0920    10.4750 hc         1 HXO       0.053033
     30 H6           3.1880    -8.4280     8.7440 hc         1 HXO       0.053033
     31 H7           1.9190    -8.8670     9.9090 hc         1 HXO       0.053033
     32 H8          -0.4310   -13.0730     9.1690 hn         1 HXO       0.342500
     33 H9           3.5890   -11.4720     8.1980 hn         1 HXO       0.342500
     34 H10          1.0980   -12.8440     5.9050 hc         1 HXO       0.070200
     35 H11          2.1780   -11.5750     6.4110 hc         1 HXO       0.070200
     36 H12          2.1970   -13.5100     7.9820 h1         1 HXO       0.091700
     37 H13          5.4040    -9.0850    11.5290 hn         1 HXO       0.345500
     38 H14          7.6240    -8.5500    10.8170 ho         1 HXO       0.445000
     39 H15         -1.3730   -12.5390     5.9420 ha         1 HXO       0.119500
     40 H16         -3.2770    -6.5780     5.0280 hn         1 HXO       0.474500
     41 H17         -2.4160    -7.8720     4.6410 hn         1 HXO       0.474500
     42 H18          1.2740    -9.3930     7.2700 ha         1 HXO       0.119500
     43 H19         -0.5910    -7.7770     7.2000 ha         1 HXO       0.133500
     44 H20         -3.2530   -10.9350     5.8610 ha         1 HXO       0.133500
     45 N4           5.8960    -9.4150    10.6990 ns         1 HXO      -0.383400
@<TRIPOS>BOND
     1     1     7 1   
     2     1    10 1   
     3     1    12 2   
     4     2     4 1   
     5     2     5 1   
     6     2     7 1   
     7     2    25 1   
     8     3     8 1   
     9     3    26 1   
    10     3    27 1   
    11     3    28 1   
    12     4    29 1   
    13     4    30 1   
    14     4    31 1   
    15     5    13 2   
    16     5    45 1   
    17     6     8 1   
    18     6    10 1   
    19     6    32 1   
    20     7    33 1   
    21     8    11 2   
    22     9    10 1   
    23     9    19 1   
    24     9    34 1   
    25     9    35 1   
    26    10    36 1   
    27    14    38 1   
    28    14    45 1   
    29    15    17 1   
    30    15    18 2   
    31    15    20 2   
    32    15    23 1   
    33    16    19 ar  
    34    16    24 ar  
    35    16    39 1   
    36    17    40 1   
    37    17    41 1   
    38    19    21 ar  
    39    21    22 ar  
    40    21    42 1   
    41    22    23 ar  
    42    22    43 1   
    43    23    24 ar  
    44    24    44 1   
    45    37    45 1   
@<TRIPOS>SUBSTRUCTURE
     1 HXO         1 TEMP              0 ****  ****    0 ROOT
