@<TRIPOS>MOLECULE
HXO
   45    45     1     0     0
SMALL
abcg2


@<TRIPOS>ATOM
      1 C4           1.8080   -11.5740     9.0560 c          1 HXO       0.593100
      2 C5           3.5960   -10.0910     9.8260 c3         1 HXO       0.036700
      3 C6          -1.3910   -15.0620     8.5890 c3         1 HXO      -0.177100
      4 C11          3.2330    -8.6810     9.3630 c3         1 HXO      -0.110100
      5 C12          5.1130   -10.2490     9.8360 c          1 HXO       0.593100
      6 N1           0.2590   -13.3120     8.4670 ns         1 HXO      -0.502900
      7 N2           3.0620   -11.1150     8.9580 ns         1 HXO      -0.499900
      8 C3          -0.0770   -14.5490     8.0570 c          1 HXO       0.603100
      9 C1           1.2290   -11.9720     6.6190 c3         1 HXO      -0.060100
     10 C2           1.4310   -12.6200     8.0090 c3         1 HXO       0.041700
     11 O2           0.6180   -15.2030     7.2920 o          1 HXO      -0.611100
     12 O3           1.0100   -11.1890     9.8960 o          1 HXO      -0.601100
     13 O8           5.7370   -10.5650     8.8390 o          1 HXO      -0.576100
     14 O9           7.0140   -10.0670    11.1900 oh         1 HXO      -0.413100
     15 S12         -3.5200    -8.2210     6.5460 sy         1 HXO       1.140600
     16 C21         -1.2080   -11.5080     6.2450 ca         1 HXO      -0.123000
     17 N21         -3.3660    -7.2580     5.2200 n8         1 HXO      -0.994100
     18 O21         -3.4060    -7.3470     7.7010 o          1 HXO      -0.529000
     19 C23          0.0590   -11.0360     6.5770 ca         1 HXO      -0.024300
     20 O24         -4.7220    -9.0100     6.3430 o          1 HXO      -0.529000
     21 C31          0.2070    -9.6880     6.8980 ca         1 HXO      -0.123000
     22 C41         -0.8790    -8.8320     6.9030 ca         1 HXO      -0.014500
     23 C51         -2.1340    -9.3270     6.5650 ca         1 HXO      -0.317500
     24 C61         -2.3070   -10.6610     6.2320 ca         1 HXO      -0.014500
     25 H1           3.1960   -10.2500    10.8300 h1         1 HXO       0.081700
     26 H2          -1.2940   -16.1090     8.8700 hc         1 HXO       0.063700
     27 H3          -1.7580   -14.4980     9.4440 hc         1 HXO       0.063700
     28 H4          -2.1400   -15.0020     7.7980 hc         1 HXO       0.063700
     29 H5           3.6490    -7.9330    10.0370 hc         1 HXO       0.053033
     30 H6           3.6140    -8.4930     8.3590 hc         1 HXO       0.053033
     31 H7           2.1510    -8.5600     9.3520 hc         1 HXO       0.053033
     32 H8          -0.3520   -12.8100     9.0940 hn         1 HXO       0.342500
     33 H9           3.6660   -11.4570     8.2240 hn         1 HXO       0.342500
     34 H10          1.0860   -12.7800     5.9000 hc         1 HXO       0.070200
     35 H11          2.1450   -11.4530     6.3280 hc         1 HXO       0.070200
     36 H12          2.2530   -13.3350     7.9140 h1         1 HXO       0.091700
     37 H13          5.1350    -9.8080    11.8600 hn         1 HXO       0.345500
     38 H14          7.3900    -9.1900    11.0300 ho         1 HXO       0.445000
     39 H15         -1.3420   -12.5490     5.9790 ha         1 HXO       0.119500
     40 H16         -2.5660    -6.6360     5.2590 hn         1 HXO       0.474500
     41 H17         -3.3920    -7.7680     4.3440 hn         1 HXO       0.474500
     42 H18          1.1870    -9.2960     7.1420 ha         1 HXO       0.119500
     43 H19         -0.7410    -7.7900     7.1610 ha         1 HXO       0.133500
     44 H20         -3.2810   -11.0470     5.9650 ha         1 HXO       0.133500
     45 N4           5.6710    -9.9460    11.0150 ns         1 HXO      -0.383400
@<TRIPOS>BOND
     1     1     7 1   
     2     1    10 1   
     3     1    12 2   
     4     2     4 1   
     5     2     5 1   
     6     2     7 1   
     7     2    25 1   
     8     3     8 1   
     9     3    26 1   
    10     3    27 1   
    11     3    28 1   
    12     4    29 1   
    13     4    30 1   
    14     4    31 1   
    15     5    13 2   
    16     5    45 1   
    17     6     8 1   
    18     6    10 1   
    19     6    32 1   
    20     7    33 1   
    21     8    11 2   
    22     9    10 1   
    23     9    19 1   
    24     9    34 1   
    25     9    35 1   
    26    10    36 1   
    27    14    38 1   
    28    14    45 1   
    29    15    17 1   
    30    15    18 2   
    31    15    20 2   
    32    15    23 1   
    33    16    19 ar  
    34    16    24 ar  
    35    16    39 1   
    36    17    40 1   
    37    17    41 1   
    38    19    21 ar  
    39    21    22 ar  
    40    21    42 1   
    41    22    23 ar  
    42    22    43 1   
    43    23    24 ar  
    44    24    44 1   
    45    37    45 1   
@<TRIPOS>SUBSTRUCTURE
     1 HXO         1 TEMP              0 ****  ****    0 ROOT
