@<TRIPOS>MOLECULE
HXP
   34    36     1     0     0
SMALL
No Charge or Current Charge


@<TRIPOS>ATOM
      1 C1          -1.2910     1.1340     1.9380 ca         1 HXP      -0.038000
      2 C2          -2.5430     0.8010     2.4820 ca         1 HXP      -0.169000
      3 C3          -3.3710    -0.1250     1.8310 ca         1 HXP       0.147100
      4 O3          -4.5820    -0.4420     2.3650 oh         1 HXP      -0.541100
      5 C4          -2.9580    -0.7120     0.6280 ca         1 HXP      -0.231000
      6 C4A         -1.7090    -0.3780     0.0800 ca         1 HXP       0.164100
      7 O10         -1.3510    -0.9220    -1.1310 os         1 HXP      -0.242200
      8 C5A         -0.3660    -0.3600    -1.9080 ca         1 HXP       0.164100
      9 C5          -0.3070    -0.6880    -3.2710 ca         1 HXP      -0.231000
     10 C6           0.6700    -0.1030    -4.0870 ca         1 HXP       0.147100
     11 O6           0.7300    -0.4150    -5.4110 oh         1 HXP      -0.541100
     12 C7           1.5880     0.8070    -3.5450 ca         1 HXP      -0.169000
     13 C8           1.5360     1.1340    -2.1780 ca         1 HXP      -0.038000
     14 C8A          0.5570     0.5480    -1.3510 ca         1 HXP      -0.140300
     15 C9           0.5190     0.8580     0.1470 c6         1 HXP       0.035900
     16 C9A         -0.8570     0.5310     0.7400 ca         1 HXP      -0.140300
     17 C10          1.6670     0.0740     0.8600 c3         1 HXP      -0.043400
     18 C11          1.8880     0.3960     2.3620 c3         1 HXP      -0.210400
     19 C12          3.1660    -0.2970     2.8660 c          1 HXP       0.719000
     20 O1           3.0730    -1.4350     3.2990 o          1 HXP      -0.738500
     21 O2           4.2250     0.3040     2.7650 o          1 HXP      -0.738500
     22 H1          -0.6560     1.8530     2.4520 ha         1 HXP       0.123000
     23 H2          -2.8710     1.2620     3.4100 ha         1 HXP       0.123500
     24 HO3         -5.0150    -1.0970     1.7770 ho         1 HXP       0.457500
     25 H4          -3.6000    -1.4160     0.1050 ha         1 HXP       0.119000
     26 H5          -1.0280    -1.3890    -3.6840 ha         1 HXP       0.119000
     27 HO6          0.0180    -1.0610    -5.6070 ho         1 HXP       0.457500
     28 H7           2.3450     1.2590    -4.1810 ha         1 HXP       0.123500
     29 H8           2.2580     1.8340    -1.7630 ha         1 HXP       0.123000
     30 H9           0.7220     1.9300     0.2880 hc         1 HXP       0.054700
     31 H1'1         2.6080     0.2760     0.3350 hc         1 HXP       0.050200
     32 H1'2         1.4910    -1.0040     0.7540 hc         1 HXP       0.050200
     33 H2'1         1.0130     0.0010     2.8910 hc         1 HXP       0.017200
     34 H2'2         1.9940     1.4860     2.4250 hc         1 HXP       0.017200
@<TRIPOS>BOND
     1     1     2 ar  
     2     1    16 ar  
     3     1    22 1   
     4     2     3 ar  
     5     2    23 1   
     6     3     4 1   
     7     3     5 ar  
     8     4    24 1   
     9     5     6 ar  
    10     5    25 1   
    11     6     7 1   
    12     6    16 ar  
    13     7     8 1   
    14     8     9 ar  
    15     8    14 ar  
    16     9    10 ar  
    17     9    26 1   
    18    10    11 1   
    19    10    12 ar  
    20    11    27 1   
    21    12    13 ar  
    22    12    28 1   
    23    13    14 ar  
    24    13    29 1   
    25    14    15 1   
    26    15    16 1   
    27    15    17 1   
    28    15    30 1   
    29    17    18 1   
    30    17    31 1   
    31    17    32 1   
    32    18    19 1   
    33    18    33 1   
    34    18    34 1   
    35    19    20 1   
    36    19    21 1   
@<TRIPOS>SUBSTRUCTURE
     1 HXP         1 TEMP              0 ****  ****    0 ROOT
