@<TRIPOS>MOLECULE
HXP
   34    36     1     0     0
SMALL
abcg2


@<TRIPOS>ATOM
      1 C1          -1.2680     1.2340     1.8440 ca         1 HXP      -0.038000
      2 C2          -2.4940     0.9110     2.3980 ca         1 HXP      -0.169000
      3 C3          -3.2740    -0.0790     1.8010 ca         1 HXP       0.147100
      4 O3          -4.4610    -0.3720     2.3690 oh         1 HXP      -0.541100
      5 C4          -2.8250    -0.7110     0.6480 ca         1 HXP      -0.231000
      6 C4A         -1.5910    -0.3590     0.1190 ca         1 HXP       0.164100
      7 O10         -1.2230    -0.9960    -1.0300 os         1 HXP      -0.242200
      8 C5A         -0.3150    -0.3770    -1.8390 ca         1 HXP       0.164100
      9 C5          -0.3180    -0.7570    -3.1750 ca         1 HXP      -0.231000
     10 C6           0.5750    -0.1550    -4.0520 ca         1 HXP       0.147100
     11 O6           0.6270    -0.4770    -5.3600 oh         1 HXP      -0.541100
     12 C7           1.4480     0.8290    -3.5880 ca         1 HXP      -0.169000
     13 C8           1.4250     1.1810    -2.2500 ca         1 HXP      -0.038000
     14 C8A          0.5550     0.5830    -1.3440 ca         1 HXP      -0.140300
     15 C9           0.5870     0.8730     0.1320 c6         1 HXP       0.035900
     16 C9A         -0.7760     0.5980     0.7080 ca         1 HXP      -0.140300
     17 C10          1.6930     0.0350     0.8050 c3         1 HXP      -0.043400
     18 C11          1.8910     0.3380     2.2790 c3         1 HXP      -0.210400
     19 C12          3.0570    -0.4080     2.9550 c          1 HXP       0.719000
     20 O1           3.5970    -1.3370     2.3230 o          1 HXP      -0.738500
     21 O2           3.3550    -0.0260     4.1060 o          1 HXP      -0.738500
     22 H1          -0.6660     2.0040     2.3120 ha         1 HXP       0.123000
     23 H2          -2.8480     1.4180     3.2860 ha         1 HXP       0.123500
     24 HO3         -4.9190    -1.0520     1.8640 ho         1 HXP       0.457500
     25 H4          -3.4310    -1.4600     0.1490 ha         1 HXP       0.119000
     26 H5          -1.0190    -1.5090    -3.5190 ha         1 HXP       0.119000
     27 HO6         -0.0100    -1.1710    -5.5610 ho         1 HXP       0.457500
     28 H7           2.1390     1.3060    -4.2710 ha         1 HXP       0.123500
     29 H8           2.1130     1.9380    -1.8920 ha         1 HXP       0.123000
     30 H9           0.8280     1.9310     0.2830 hc         1 HXP       0.054700
     31 H1'1         2.6240     0.2260     0.2640 hc         1 HXP       0.050200
     32 H1'2         1.4720    -1.0270     0.6610 hc         1 HXP       0.050200
     33 H2'1         0.9810     0.0960     2.8390 hc         1 HXP       0.017200
     34 H2'2         2.0350     1.4150     2.4230 hc         1 HXP       0.017200
@<TRIPOS>BOND
     1     1     2 ar  
     2     1    16 ar  
     3     1    22 1   
     4     2     3 ar  
     5     2    23 1   
     6     3     4 1   
     7     3     5 ar  
     8     4    24 1   
     9     5     6 ar  
    10     5    25 1   
    11     6     7 1   
    12     6    16 ar  
    13     7     8 1   
    14     8     9 ar  
    15     8    14 ar  
    16     9    10 ar  
    17     9    26 1   
    18    10    11 1   
    19    10    12 ar  
    20    11    27 1   
    21    12    13 ar  
    22    12    28 1   
    23    13    14 ar  
    24    13    29 1   
    25    14    15 1   
    26    15    16 1   
    27    15    17 1   
    28    15    30 1   
    29    17    18 1   
    30    17    31 1   
    31    17    32 1   
    32    18    19 1   
    33    18    33 1   
    34    18    34 1   
    35    19    20 1   
    36    19    21 1   
@<TRIPOS>SUBSTRUCTURE
     1 HXP         1 TEMP              0 ****  ****    0 ROOT
