@<TRIPOS>MOLECULE
HXQ
   71    74     1     0     0
SMALL
No Charge or Current Charge


@<TRIPOS>ATOM
      1 C21          1.1290    44.1940    59.9160 c3         1 HXQ       0.152100
      2 C22          3.3900    45.2350    59.7910 c6         1 HXQ       0.164800
      3 C23          3.1650    46.4610    60.7100 c6         1 HXQ      -0.124900
      4 C12          8.8310    52.1680    63.2590 cc         1 HXQ      -0.136300
      5 C13          9.9000    51.9140    62.2250 c3         1 HXQ      -0.033800
      6 C14          8.6100    49.7750    64.1400 c3         1 HXQ       0.072900
      7 C16          6.2890    53.8920    65.3490 c3         1 HXQ      -0.124400
      8 C19          1.3270    47.2290    59.1180 c6         1 HXQ      -0.124900
      9 C1           7.4820    49.0060    60.2890 c3         1 HXQ       0.226800
     10 N1           4.5940    49.6050    60.3320 nb         1 HXQ      -0.356000
     11 C2           7.3020    50.9550    58.6790 c3         1 HXQ       0.209100
     12 C3           5.5200    50.5690    60.4050 ca         1 HXQ       0.457900
     13 C4           3.3790    49.8790    60.8330 ca         1 HXQ       0.449900
     14 C5           3.9370    52.0140    61.5060 ca         1 HXQ       0.138000
     15 C6           3.6190    53.2360    62.1240 ca         1 HXQ      -0.152000
     16 C7           4.5850    54.2450    62.2660 ca         1 HXQ       0.021000
     17 O1           6.6590    56.3920    62.8070 o          1 HXQ      -0.546000
     18 O            7.8980    55.4580    60.7640 o          1 HXQ      -0.546000
     19 N3           8.3310    54.5440    62.9900 nu         1 HXQ      -0.821100
     20 C11          8.1560    53.3090    63.5840 cd         1 HXQ       0.088000
     21 C15          7.2360    52.9760    64.6220 cd         1 HXQ       0.313300
     22 N5           7.2920    51.6980    64.9480 nc         1 HXQ      -0.524800
     23 N4           8.2630    51.2040    64.0960 na         1 HXQ       0.126800
     24 C8           5.8880    54.0330    61.7820 ca         1 HXQ      -0.373500
     25 C9           6.2120    52.8260    61.1390 ca         1 HXQ       0.057000
     26 C10          5.2400    51.8150    61.0020 ca         1 HXQ      -0.249000
     27 N            6.7770    50.2340    59.8600 nh         1 HXQ      -0.785300
     28 C            7.2800    47.8000    59.3520 c3         1 HXQ      -0.114100
     29 N2           3.0130    51.0410    61.4100 nb         1 HXQ      -0.302000
     30 N6           2.3970    48.8540    60.7590 nh         1 HXQ      -0.773300
     31 C18          2.6070    47.6490    59.8900 c6         1 HXQ       0.239500
     32 N7           2.1490    44.8490    59.0610 n3         1 HXQ      -0.718600
     33 C20          1.6190    45.9810    58.2480 c6         1 HXQ       0.164800
     34 H1           1.5540    43.3140    60.4170 h1         1 HXQ       0.031367
     35 H2           0.7490    44.8750    60.6890 h1         1 HXQ       0.031367
     36 H3           0.2770    43.8570    59.3110 h1         1 HXQ       0.031367
     37 H4           3.7630    44.3920    60.3930 h1         1 HXQ       0.053950
     38 H5           4.1840    45.4800    59.0700 h1         1 HXQ       0.053950
     39 H6           2.4830    46.2000    61.5290 hc         1 HXQ       0.051200
     40 H7           4.1180    46.7440    61.1770 hc         1 HXQ       0.051200
     41 H8          10.6890    51.2660    62.6240 hc         1 HXQ       0.054700
     42 H9           9.4760    51.4240    61.3410 hc         1 HXQ       0.054700
     43 H10         10.3730    52.8470    61.8970 hc         1 HXQ       0.054700
     44 H11          7.8120    49.2100    64.6370 h1         1 HXQ       0.058700
     45 H12          8.7360    49.3960    63.1190 h1         1 HXQ       0.058700
     46 H13          9.5470    49.6460    64.6940 h1         1 HXQ       0.058700
     47 H14          6.2890    53.6840    66.4250 hc         1 HXQ       0.058700
     48 H15          6.5700    54.9430    65.2180 hc         1 HXQ       0.058700
     49 H16          5.2650    53.7640    64.9830 hc         1 HXQ       0.058700
     50 H17          0.3890    49.4730    61.1510 h1         1 HXQ       0.043700
     51 H18          0.8150    47.8850    61.8410 h1         1 HXQ       0.043700
     52 H19          1.4210    49.3530    62.6010 h1         1 HXQ       0.043700
     53 H20          0.9940    48.0540    58.4750 hc         1 HXQ       0.051200
     54 H21          0.4980    47.0090    59.8010 hc         1 HXQ       0.051200
     55 H22          7.1450    48.7240    61.2960 h1         1 HXQ       0.057200
     56 H23          8.5580    49.2120    60.3700 h1         1 HXQ       0.057200
     57 H24          6.6980    51.8480    58.4670 h1         1 HXQ       0.051033
     58 H25          8.3370    51.2790    58.8540 h1         1 HXQ       0.051033
     59 H26          7.2770    50.3140    57.7890 h1         1 HXQ       0.051033
     60 H27          2.6170    53.3980    62.5120 ha         1 HXQ       0.134000
     61 H28          4.3180    55.1750    62.7660 ha         1 HXQ       0.142000
     62 H29          9.1450    54.5970    62.3920 hn         1 HXQ       0.475000
     63 H30          7.2280    52.6690    60.7820 ha         1 HXQ       0.126000
     64 H31          7.8110    46.9250    59.7440 hc         1 HXQ       0.044700
     65 H32          6.2180    47.5440    59.2670 hc         1 HXQ       0.044700
     66 H33          7.6680    48.0130    58.3490 hc         1 HXQ       0.044700
     67 H34          3.3480    47.8790    59.1080 h1         1 HXQ       0.090700
     68 H36          2.3500    46.2570    57.4730 h1         1 HXQ       0.053950
     69 H37          0.7010    45.6830    57.7200 h1         1 HXQ       0.053950
     70 S            7.1650    55.2680    62.0160 sy         1 HXQ       1.167600
     71 C17          1.1900    48.8950    61.6300 c3         1 HXQ       0.224100
@<TRIPOS>BOND
     1     1    32 1   
     2     1    34 1   
     3     1    35 1   
     4     1    36 1   
     5     2     3 1   
     6     2    32 1   
     7     2    37 1   
     8     2    38 1   
     9     3    31 1   
    10     3    39 1   
    11     3    40 1   
    12     4     5 1   
    13     4    20 2   
    14     4    23 1   
    15     5    41 1   
    16     5    42 1   
    17     5    43 1   
    18     6    23 1   
    19     6    44 1   
    20     6    45 1   
    21     6    46 1   
    22     7    21 1   
    23     7    47 1   
    24     7    48 1   
    25     7    49 1   
    26     8    31 1   
    27     8    33 1   
    28     8    53 1   
    29     8    54 1   
    30     9    27 1   
    31     9    28 1   
    32     9    55 1   
    33     9    56 1   
    34    10    12 ar  
    35    10    13 ar  
    36    11    27 1   
    37    11    57 1   
    38    11    58 1   
    39    11    59 1   
    40    12    26 ar  
    41    12    27 1   
    42    13    29 ar  
    43    13    30 1   
    44    14    15 ar  
    45    14    26 ar  
    46    14    29 ar  
    47    15    16 ar  
    48    15    60 1   
    49    16    24 ar  
    50    16    61 1   
    51    17    70 2   
    52    18    70 2   
    53    19    20 1   
    54    19    62 1   
    55    19    70 1   
    56    20    21 1   
    57    21    22 2   
    58    22    23 1   
    59    24    25 ar  
    60    24    70 1   
    61    25    26 ar  
    62    25    63 1   
    63    28    64 1   
    64    28    65 1   
    65    28    66 1   
    66    30    31 1   
    67    30    71 1   
    68    31    67 1   
    69    32    33 1   
    70    33    68 1   
    71    33    69 1   
    72    50    71 1   
    73    51    71 1   
    74    52    71 1   
@<TRIPOS>SUBSTRUCTURE
     1 HXQ         1 TEMP              0 ****  ****    0 ROOT
