@<TRIPOS>MOLECULE
HXQ
   71    74     1     0     0
SMALL
abcg2


@<TRIPOS>ATOM
      1 C21          1.7150    43.7230    59.8420 c3         1 HXQ       0.152100
      2 C22          3.9020    44.7750    59.5910 c6         1 HXQ       0.164800
      3 C23          3.7920    45.9430    60.5820 c6         1 HXQ      -0.124900
      4 C12          7.5370    52.3030    64.7030 cc         1 HXQ      -0.136300
      5 C13          7.4010    51.0290    63.9520 c3         1 HXQ      -0.033800
      6 C14          6.4570    51.4680    66.8040 c3         1 HXQ       0.072900
      7 C16          8.3730    55.7910    65.6160 c3         1 HXQ      -0.124400
      8 C19          1.8370    46.7850    59.2330 c6         1 HXQ      -0.124900
      9 C1           6.6200    49.0680    57.7700 c3         1 HXQ       0.226800
     10 N1           4.8030    49.3550    59.7180 nb         1 HXQ      -0.356000
     11 C2           7.1440    51.4740    57.9230 c3         1 HXQ       0.209100
     12 C3           5.6260    50.3800    59.5660 ca         1 HXQ       0.457900
     13 C4           3.8350    49.4040    60.6600 ca         1 HXQ       0.449900
     14 C5           4.4690    51.4620    61.4120 ca         1 HXQ       0.138000
     15 C6           4.3190    52.5360    62.3260 ca         1 HXQ      -0.152000
     16 C7           5.2740    53.5100    62.4410 ca         1 HXQ       0.021000
     17 O1           7.2070    55.7600    62.4950 o          1 HXQ      -0.546000
     18 O            8.6000    54.6210    60.7610 o          1 HXQ      -0.546000
     19 N3           8.7110    53.8630    63.1130 nu         1 HXQ      -0.821100
     20 C11          8.1080    53.5220    64.3500 cd         1 HXQ       0.088000
     21 C15          7.9530    54.3690    65.4680 cd         1 HXQ       0.313300
     22 N5           7.3310    53.7160    66.4480 nc         1 HXQ      -0.524800
     23 N4           7.0900    52.4680    65.9670 na         1 HXQ       0.126800
     24 C8           6.4260    53.4450    61.6350 ca         1 HXQ      -0.373500
     25 C9           6.5780    52.4480    60.6920 ca         1 HXQ       0.057000
     26 C10          5.5840    51.4780    60.5180 ca         1 HXQ      -0.249000
     27 N            6.4890    50.3190    58.5260 nh         1 HXQ      -0.785300
     28 C            5.6080    48.9280    56.6380 c3         1 HXQ      -0.114100
     29 N2           3.5760    50.4510    61.4520 nb         1 HXQ      -0.302000
     30 N6           3.0460    48.3080    60.7900 nh         1 HXQ      -0.773300
     31 C18          3.1690    47.1570    59.8890 c6         1 HXQ       0.239500
     32 N7           2.6360    44.4160    58.9490 n3         1 HXQ      -0.718600
     33 C20          2.0410    45.5840    58.2980 c6         1 HXQ       0.164800
     34 H1           2.1970    42.8210    60.2250 h1         1 HXQ       0.031367
     35 H2           1.3810    44.3160    60.7050 h1         1 HXQ       0.031367
     36 H3           0.8280    43.4240    59.2800 h1         1 HXQ       0.031367
     37 H4           4.3040    43.8910    60.0900 h1         1 HXQ       0.053950
     38 H5           4.6080    45.0530    58.8010 h1         1 HXQ       0.053950
     39 H6           3.1910    45.6470    61.4450 hc         1 HXQ       0.051200
     40 H7           4.7860    46.2050    60.9530 hc         1 HXQ       0.051200
     41 H8           7.8060    50.1890    64.5200 hc         1 HXQ       0.054700
     42 H9           6.3520    50.8130    63.7370 hc         1 HXQ       0.054700
     43 H10          7.9310    51.0900    63.0040 hc         1 HXQ       0.054700
     44 H11          6.1410    51.9570    67.7210 h1         1 HXQ       0.058700
     45 H12          5.5890    51.0470    66.2990 h1         1 HXQ       0.058700
     46 H13          7.1570    50.6660    67.0420 h1         1 HXQ       0.058700
     47 H14          8.4230    56.0630    66.6710 hc         1 HXQ       0.058700
     48 H15          9.3530    55.9520    65.1630 hc         1 HXQ       0.058700
     49 H16          7.6720    56.4630    65.1170 hc         1 HXQ       0.058700
     50 H17          1.1710    48.8910    61.5940 h1         1 HXQ       0.043700
     51 H18          1.7070    47.2470    61.9740 h1         1 HXQ       0.043700
     52 H19          2.4560    48.6320    62.7780 h1         1 HXQ       0.043700
     53 H20          1.4540    47.6360    58.6640 hc         1 HXQ       0.051200
     54 H21          1.0890    46.5370    59.9900 hc         1 HXQ       0.051200
     55 H22          6.5200    48.2390    58.4670 h1         1 HXQ       0.057200
     56 H23          7.6360    49.0520    57.3720 h1         1 HXQ       0.057200
     57 H24          6.5920    52.3870    58.1280 h1         1 HXQ       0.051033
     58 H25          8.1760    51.5890    58.2650 h1         1 HXQ       0.051033
     59 H26          7.1600    51.3300    56.8430 h1         1 HXQ       0.051033
     60 H27          3.4450    52.5410    62.9640 ha         1 HXQ       0.134000
     61 H28          5.1620    54.3110    63.1570 ha         1 HXQ       0.142000
     62 H29          9.3020    53.1450    62.7070 hn         1 HXQ       0.475000
     63 H30          7.4900    52.4180    60.1200 ha         1 HXQ       0.126000
     64 H31          5.7930    48.0010    56.0900 hc         1 HXQ       0.044700
     65 H32          4.5930    48.9000    57.0320 hc         1 HXQ       0.044700
     66 H33          5.6870    49.7570    55.9310 hc         1 HXQ       0.044700
     67 H34          3.8480    47.4720    59.1010 h1         1 HXQ       0.090700
     68 H36          2.7060    45.8840    57.4810 h1         1 HXQ       0.053950
     69 H37          1.0900    45.2880    57.8520 h1         1 HXQ       0.053950
     70 S            7.7560    54.5500    61.9310 sy         1 HXQ       1.167600
     71 C17          2.0390    48.2730    61.8390 c3         1 HXQ       0.224100
@<TRIPOS>BOND
     1     1    32 1   
     2     1    34 1   
     3     1    35 1   
     4     1    36 1   
     5     2     3 1   
     6     2    32 1   
     7     2    37 1   
     8     2    38 1   
     9     3    31 1   
    10     3    39 1   
    11     3    40 1   
    12     4     5 1   
    13     4    20 2   
    14     4    23 1   
    15     5    41 1   
    16     5    42 1   
    17     5    43 1   
    18     6    23 1   
    19     6    44 1   
    20     6    45 1   
    21     6    46 1   
    22     7    21 1   
    23     7    47 1   
    24     7    48 1   
    25     7    49 1   
    26     8    31 1   
    27     8    33 1   
    28     8    53 1   
    29     8    54 1   
    30     9    27 1   
    31     9    28 1   
    32     9    55 1   
    33     9    56 1   
    34    10    12 ar  
    35    10    13 ar  
    36    11    27 1   
    37    11    57 1   
    38    11    58 1   
    39    11    59 1   
    40    12    26 ar  
    41    12    27 1   
    42    13    29 ar  
    43    13    30 1   
    44    14    15 ar  
    45    14    26 ar  
    46    14    29 ar  
    47    15    16 ar  
    48    15    60 1   
    49    16    24 ar  
    50    16    61 1   
    51    17    70 2   
    52    18    70 2   
    53    19    20 1   
    54    19    62 1   
    55    19    70 1   
    56    20    21 1   
    57    21    22 2   
    58    22    23 1   
    59    24    25 ar  
    60    24    70 1   
    61    25    26 ar  
    62    25    63 1   
    63    28    64 1   
    64    28    65 1   
    65    28    66 1   
    66    30    31 1   
    67    30    71 1   
    68    31    67 1   
    69    32    33 1   
    70    33    68 1   
    71    33    69 1   
    72    50    71 1   
    73    51    71 1   
    74    52    71 1   
@<TRIPOS>SUBSTRUCTURE
     1 HXQ         1 TEMP              0 ****  ****    0 ROOT
