@<TRIPOS>MOLECULE
HXR
   35    36     1     0     0
SMALL
No Charge or Current Charge


@<TRIPOS>ATOM
      1 C4          13.5960    46.4340    -2.0140 ca         1 HXR      -0.014500
      2 C14          8.7460    48.7230     5.0870 c          1 HXR       0.585100
      3 C5          13.2580    47.3530    -3.0280 ca         1 HXR      -0.318500
      4 C6          12.2050    48.2650    -2.8160 ca         1 HXR      -0.014500
      5 C11          9.6260    47.3150     3.1860 ca         1 HXR      -0.094300
      6 C7           9.6760    47.6130     0.7650 ca         1 HXR      -0.092000
      7 C8          11.0650    47.3310     0.7250 cp         1 HXR      -0.046000
      8 C9          11.7130    47.0400     1.9520 ca         1 HXR      -0.092000
      9 C10         11.0040    47.0330     3.1660 ca         1 HXR      -0.105500
     10 C12          8.9670    47.6050     1.9780 ca         1 HXR      -0.105500
     11 N1          15.3100    48.4880    -4.2670 n8         1 HXR      -0.995100
     12 C3          12.8840    46.4310    -0.8020 ca         1 HXR      -0.120500
     13 C1          11.4980    48.2540    -1.6020 ca         1 HXR      -0.120500
     14 O1          14.9130    46.1250    -4.7310 o          1 HXR      -0.527500
     15 S1          14.1610    47.3680    -4.5790 sy         1 HXR       1.141600
     16 C2          11.8210    47.3380    -0.5690 cp         1 HXR       0.019000
     17 O2          13.3420    47.9420    -5.6470 o          1 HXR      -0.527500
     18 N7           9.6240    49.0220     6.1180 ns         1 HXR      -0.372400
     19 O7           7.9510    49.5590     4.6740 o          1 HXR      -0.621100
     20 O8           9.7340    50.3770     6.6140 oh         1 HXR      -0.444100
     21 H1          14.4040    45.7170    -2.1580 ha         1 HXR       0.137000
     22 H2          11.9320    48.9860    -3.5860 ha         1 HXR       0.137000
     23 H3           9.1390    47.8280    -0.1560 ha         1 HXR       0.122500
     24 H4          12.7800    46.8320     1.9670 ha         1 HXR       0.122500
     25 H5          11.5320    46.8090     4.0900 ha         1 HXR       0.122500
     26 H6           7.9010    47.8250     1.9760 ha         1 HXR       0.122500
     27 H7           7.8390    46.9310     4.3290 hc         1 HXR       0.086700
     28 H8           9.3620    46.6550     5.2180 hc         1 HXR       0.086700
     29 H9          15.2920    48.5290    -3.2510 hn         1 HXR       0.475500
     30 H10         16.1540    47.9600    -4.4750 hn         1 HXR       0.475500
     31 H11         13.1530    45.7040    -0.0410 ha         1 HXR       0.123000
     32 H12         10.6990    48.9750    -1.4560 ha         1 HXR       0.123000
     33 H13         10.3910    48.3880     6.3390 hn         1 HXR       0.366500
     34 H14          9.2260    50.8930     5.9400 ho         1 HXR       0.475000
     35 C13          8.8520    47.3100     4.5020 c3         1 HXR      -0.109100
@<TRIPOS>BOND
     1     1     3 ar  
     2     1    12 ar  
     3     1    21 1   
     4     2    18 1   
     5     2    19 2   
     6     2    35 1   
     7     3     4 ar  
     8     3    15 1   
     9     4    13 ar  
    10     4    22 1   
    11     5     9 ar  
    12     5    10 ar  
    13     5    35 1   
    14     6     7 ar  
    15     6    10 ar  
    16     6    23 1   
    17     7     8 ar  
    18     7    16 1   
    19     8     9 ar  
    20     8    24 1   
    21     9    25 1   
    22    10    26 1   
    23    11    15 1   
    24    11    29 1   
    25    11    30 1   
    26    12    16 ar  
    27    12    31 1   
    28    13    16 ar  
    29    13    32 1   
    30    14    15 2   
    31    15    17 2   
    32    18    20 1   
    33    18    33 1   
    34    20    34 1   
    35    27    35 1   
    36    28    35 1   
@<TRIPOS>SUBSTRUCTURE
     1 HXR         1 TEMP              0 ****  ****    0 ROOT
