@<TRIPOS>MOLECULE
HXR
   35    36     1     0     0
SMALL
bcc


@<TRIPOS>ATOM
      1 C4          13.4160    46.3700    -2.0340 ca         1 HXR      -0.032500
      2 C14          8.8820    48.5640     5.2190 c          1 HXR       0.652100
      3 C5          13.2220    47.4820    -2.8440 ca         1 HXR      -0.318500
      4 C6          12.3310    48.4810    -2.4820 ca         1 HXR      -0.032500
      5 C11          9.6790    47.1430     3.2540 ca         1 HXR      -0.094300
      6 C7           9.7300    47.5440     0.8730 ca         1 HXR      -0.110000
      7 C8          11.0760    47.1790     0.8160 cp         1 HXR      -0.046000
      8 C9          11.7040    46.7700     1.9910 ca         1 HXR      -0.110000
      9 C10         11.0150    46.7590     3.1940 ca         1 HXR      -0.123500
     10 C12          9.0420    47.5200     2.0740 ca         1 HXR      -0.123500
     11 N1          15.6530    48.1150    -3.9850 n8         1 HXR      -0.884700
     12 C3          12.7210    46.2720    -0.8410 ca         1 HXR      -0.138500
     13 C1          11.6330    48.3640    -1.2930 ca         1 HXR      -0.138500
     14 O1          14.2510    46.3040    -4.9410 o          1 HXR      -0.598300
     15 S1          14.1270    47.6310    -4.3610 sy         1 HXR       1.283200
     16 C2          11.8190    47.2650    -0.4550 cp         1 HXR       0.019000
     17 O2          13.5270    48.7120    -5.1230 o          1 HXR      -0.598300
     18 N7           9.5430    49.5500     4.6160 ns         1 HXR      -0.439400
     19 O7           8.2620    48.7630     6.2600 o          1 HXR      -0.621100
     20 O8           9.5040    50.8190     5.1280 oh         1 HXR      -0.405100
     21 H1          14.0990    45.5810    -2.3220 ha         1 HXR       0.155000
     22 H2          12.1790    49.3460    -3.1110 ha         1 HXR       0.155000
     23 H3           9.2110    47.8370    -0.0310 ha         1 HXR       0.140500
     24 H4          12.7490    46.4880     1.9760 ha         1 HXR       0.140500
     25 H5          11.5290    46.4620     4.1010 ha         1 HXR       0.140500
     26 H6           7.9970    47.8030     2.0950 ha         1 HXR       0.140500
     27 H7           7.9080    46.8740     4.4320 hc         1 HXR       0.086700
     28 H8           9.3910    46.5200     5.2880 hc         1 HXR       0.086700
     29 H9          15.6920    49.0210    -3.5310 hn         1 HXR       0.420300
     30 H10         16.1860    47.4230    -3.4700 hn         1 HXR       0.420300
     31 H11         12.8640    45.3990    -0.2170 ha         1 HXR       0.141000
     32 H12         10.9500    49.1540    -1.0070 ha         1 HXR       0.141000
     33 H13         10.0040    49.5000     3.7220 hn         1 HXR       0.366500
     34 H14          8.9130    50.7430     5.8960 ho         1 HXR       0.436000
     35 C13          8.9430    47.2000     4.5610 c3         1 HXR      -0.109100
@<TRIPOS>BOND
     1     1     3 ar  
     2     1    12 ar  
     3     1    21 1   
     4     2    18 1   
     5     2    19 2   
     6     2    35 1   
     7     3     4 ar  
     8     3    15 1   
     9     4    13 ar  
    10     4    22 1   
    11     5     9 ar  
    12     5    10 ar  
    13     5    35 1   
    14     6     7 ar  
    15     6    10 ar  
    16     6    23 1   
    17     7     8 ar  
    18     7    16 1   
    19     8     9 ar  
    20     8    24 1   
    21     9    25 1   
    22    10    26 1   
    23    11    15 1   
    24    11    29 1   
    25    11    30 1   
    26    12    16 ar  
    27    12    31 1   
    28    13    16 ar  
    29    13    32 1   
    30    14    15 2   
    31    15    17 2   
    32    18    20 1   
    33    18    33 1   
    34    20    34 1   
    35    27    35 1   
    36    28    35 1   
@<TRIPOS>SUBSTRUCTURE
     1 HXR         1 TEMP              0 ****  ****    0 ROOT
