@<TRIPOS>MOLECULE
HXS
   42    43     1     0     0
SMALL
No Charge or Current Charge


@<TRIPOS>ATOM
      1 C1          -3.8920    -0.1990    -1.3060 ca         1 HXS      -0.174000
      2 C2          -4.6970    -0.2600    -0.1600 ca         1 HXS       0.134100
      3 C3          -4.1310    -0.0450     1.1060 ca         1 HXS      -0.174000
      4 C4          -2.7570     0.2300     1.2250 ca         1 HXS      -0.070000
      5 C5          -1.9390     0.2930     0.0780 ca         1 HXS      -0.107300
      6 O16         -6.0270    -0.5270    -0.2830 oh         1 HXS      -0.535100
      7 C           -2.5190     0.0760    -1.1900 ca         1 HXS      -0.070000
      8 C7          -0.4400     0.5920     0.2190 c3         1 HXS      -0.004400
      9 C17         -0.0650     1.9160    -0.5090 c3         1 HXS      -0.070400
     10 C18         -0.8830     3.1410    -0.0460 c3         1 HXS      -0.088100
     11 C8           0.4390    -0.6170    -0.2450 c3         1 HXS      -0.004400
     12 C19          0.0640    -1.9410     0.4840 c3         1 HXS      -0.070400
     13 C20          0.8820    -3.1660     0.0210 c3         1 HXS      -0.088100
     14 C9           1.9390    -0.3180    -0.1040 ca         1 HXS      -0.107300
     15 C14          2.7570    -0.2550    -1.2510 ca         1 HXS      -0.070000
     16 C13          4.1300     0.0200    -1.1320 ca         1 HXS      -0.174000
     17 C12          4.6960     0.2350     0.1340 ca         1 HXS       0.134100
     18 O15          6.0270     0.5030     0.2560 oh         1 HXS      -0.535100
     19 C11          3.8920     0.1750     1.2800 ca         1 HXS      -0.174000
     20 C10          2.5180    -0.1000     1.1650 ca         1 HXS      -0.070000
     21 H1          -4.3310    -0.3660    -2.2860 ha         1 HXS       0.119500
     22 H3          -4.7470    -0.0900     2.0010 ha         1 HXS       0.119500
     23 H4          -2.3300     0.3940     2.2120 ha         1 HXS       0.111500
     24 HO16        -6.4270    -0.5300     0.6140 ho         1 HXS       0.463000
     25 H           -1.9070     0.1190    -2.0880 ha         1 HXS       0.111500
     26 H7          -0.2210     0.7530     1.2820 hc         1 HXS       0.049700
     27 H17          0.9950     2.1400    -0.3400 hc         1 HXS       0.042700
     28 H17A        -0.1870     1.7920    -1.5910 hc         1 HXS       0.042700
     29 H18         -1.9460     3.0200    -0.2830 hc         1 HXS       0.032867
     30 H18A        -0.7820     3.2880     1.0360 hc         1 HXS       0.032867
     31 H18B        -0.5250     4.0480    -0.5490 hc         1 HXS       0.032867
     32 H8           0.2200    -0.7780    -1.3070 hc         1 HXS       0.049700
     33 H19          0.1870    -1.8170     1.5660 hc         1 HXS       0.042700
     34 H19A        -0.9960    -2.1650     0.3150 hc         1 HXS       0.042700
     35 H20          0.5250    -4.0730     0.5240 hc         1 HXS       0.032867
     36 H20A         0.7820    -3.3130    -1.0610 hc         1 HXS       0.032867
     37 H20B         1.9450    -3.0450     0.2580 hc         1 HXS       0.032867
     38 H14          2.3290    -0.4200    -2.2380 ha         1 HXS       0.111500
     39 H13          4.7460     0.0650    -2.0270 ha         1 HXS       0.119500
     40 HO15         6.4260     0.5050    -0.6400 ho         1 HXS       0.463000
     41 H11          4.3300     0.3420     2.2600 ha         1 HXS       0.119500
     42 H10          1.9060    -0.1430     2.0630 ha         1 HXS       0.111500
@<TRIPOS>BOND
     1     1     2 ar  
     2     1     7 ar  
     3     1    21 1   
     4     2     3 ar  
     5     2     6 1   
     6     3     4 ar  
     7     3    22 1   
     8     4     5 ar  
     9     4    23 1   
    10     5     7 ar  
    11     5     8 1   
    12     6    24 1   
    13     7    25 1   
    14     8     9 1   
    15     8    11 1   
    16     8    26 1   
    17     9    10 1   
    18     9    27 1   
    19     9    28 1   
    20    10    29 1   
    21    10    30 1   
    22    10    31 1   
    23    11    12 1   
    24    11    14 1   
    25    11    32 1   
    26    12    13 1   
    27    12    33 1   
    28    12    34 1   
    29    13    35 1   
    30    13    36 1   
    31    13    37 1   
    32    14    15 ar  
    33    14    20 ar  
    34    15    16 ar  
    35    15    38 1   
    36    16    17 ar  
    37    16    39 1   
    38    17    18 1   
    39    17    19 ar  
    40    18    40 1   
    41    19    20 ar  
    42    19    41 1   
    43    20    42 1   
@<TRIPOS>SUBSTRUCTURE
     1 HXS         1 TEMP              0 ****  ****    0 ROOT
