@<TRIPOS>MOLECULE
HXS
   42    43     1     0     0
SMALL
bcc


@<TRIPOS>ATOM
      1 C1          -3.8360    -0.2540    -1.2700 ca         1 HXS      -0.192000
      2 C2          -4.6560    -0.2690    -0.1430 ca         1 HXS       0.134100
      3 C3          -4.0990    -0.0070     1.1040 ca         1 HXS      -0.192000
      4 C4          -2.7410     0.2640     1.2120 ca         1 HXS      -0.088000
      5 C5          -1.9070     0.2830     0.1010 ca         1 HXS      -0.107300
      6 O16         -5.9680    -0.5410    -0.3200 oh         1 HXS      -0.496100
      7 C           -2.4860     0.0200    -1.1400 ca         1 HXS      -0.088000
      8 C7          -0.4330     0.5820     0.2300 c3         1 HXS      -0.004400
      9 C17         -0.0670     1.8850    -0.4930 c3         1 HXS      -0.070400
     10 C18         -0.8470     3.0920     0.0070 c3         1 HXS      -0.088100
     11 C8           0.4320    -0.6060    -0.2540 c3         1 HXS      -0.004400
     12 C19          0.0670    -1.9090     0.4700 c3         1 HXS      -0.070400
     13 C20          0.8460    -3.1170    -0.0310 c3         1 HXS      -0.088100
     14 C9           1.9060    -0.3070    -0.1260 ca         1 HXS      -0.107300
     15 C14          2.7390    -0.2890    -1.2380 ca         1 HXS      -0.088000
     16 C13          4.0980    -0.0190    -1.1310 ca         1 HXS      -0.192000
     17 C12          4.6560     0.2430     0.1150 ca         1 HXS       0.134100
     18 O15          5.9680     0.5140     0.2900 oh         1 HXS      -0.496100
     19 C11          3.8380     0.2280     1.2430 ca         1 HXS      -0.192000
     20 C10          2.4860    -0.0450     1.1150 ca         1 HXS      -0.088000
     21 H1          -4.2610    -0.4590    -2.2450 ha         1 HXS       0.137500
     22 H3          -4.7200    -0.0140     1.9930 ha         1 HXS       0.137500
     23 H4          -2.3280     0.4680     2.1940 ha         1 HXS       0.129500
     24 HO16        -6.4270    -0.5310     0.5270 ho         1 HXS       0.424000
     25 H           -1.8730     0.0230    -2.0350 ha         1 HXS       0.129500
     26 H7          -0.2220     0.7330     1.2970 hc         1 HXS       0.049700
     27 H17          1.0020     2.0700    -0.3630 hc         1 HXS       0.042700
     28 H17A        -0.2230     1.7610    -1.5700 hc         1 HXS       0.042700
     29 H18         -1.9150     2.9980    -0.1960 hc         1 HXS       0.032867
     30 H18A        -0.7290     3.2170     1.0850 hc         1 HXS       0.032867
     31 H18B        -0.4980     4.0080    -0.4720 hc         1 HXS       0.032867
     32 H8           0.2210    -0.7570    -1.3200 hc         1 HXS       0.049700
     33 H19          0.2240    -1.7850     1.5460 hc         1 HXS       0.042700
     34 H19A        -1.0020    -2.0930     0.3420 hc         1 HXS       0.042700
     35 H20          0.4970    -4.0320     0.4490 hc         1 HXS       0.032867
     36 H20A         0.7250    -3.2410    -1.1090 hc         1 HXS       0.032867
     37 H20B         1.9130    -3.0230     0.1700 hc         1 HXS       0.032867
     38 H14          2.3250    -0.4920    -2.2190 ha         1 HXS       0.129500
     39 H13          4.7170    -0.0120    -2.0210 ha         1 HXS       0.137500
     40 HO15         6.4260     0.5050    -0.5580 ho         1 HXS       0.424000
     41 H11          4.2630     0.4340     2.2180 ha         1 HXS       0.137500
     42 H10          1.8740    -0.0470     2.0100 ha         1 HXS       0.129500
@<TRIPOS>BOND
     1     1     2 ar  
     2     1     7 ar  
     3     1    21 1   
     4     2     3 ar  
     5     2     6 1   
     6     3     4 ar  
     7     3    22 1   
     8     4     5 ar  
     9     4    23 1   
    10     5     7 ar  
    11     5     8 1   
    12     6    24 1   
    13     7    25 1   
    14     8     9 1   
    15     8    11 1   
    16     8    26 1   
    17     9    10 1   
    18     9    27 1   
    19     9    28 1   
    20    10    29 1   
    21    10    30 1   
    22    10    31 1   
    23    11    12 1   
    24    11    14 1   
    25    11    32 1   
    26    12    13 1   
    27    12    33 1   
    28    12    34 1   
    29    13    35 1   
    30    13    36 1   
    31    13    37 1   
    32    14    15 ar  
    33    14    20 ar  
    34    15    16 ar  
    35    15    38 1   
    36    16    17 ar  
    37    16    39 1   
    38    17    18 1   
    39    17    19 ar  
    40    18    40 1   
    41    19    20 ar  
    42    19    41 1   
    43    20    42 1   
@<TRIPOS>SUBSTRUCTURE
     1 HXS         1 TEMP              0 ****  ****    0 ROOT
