@<TRIPOS>MOLECULE
HXT
   18    18     1     0     0
SMALL
No Charge or Current Charge


@<TRIPOS>ATOM
      1 CAF         -0.7880     1.1760    -0.0090 ca         1 HXT      -0.065500
      2 CAD         -2.1790     1.3790    -0.0110 ca         1 HXT      -0.123000
      3 CAC         -3.0550     0.2830    -0.0200 ca         1 HXT      -0.083000
      4 CAE         -2.5380    -1.0220    -0.0270 ca         1 HXT      -0.123000
      5 CAG         -1.1490    -1.2310    -0.0260 ca         1 HXT      -0.065500
      6 CAJ         -0.2520    -0.1360    -0.0160 ca         1 HXT      -0.175600
      7 CAI          1.2470    -0.3860    -0.0150 c          1 HXT       0.575700
      8 OAA          1.6810    -1.5350    -0.0210 o          1 HXT      -0.488100
      9 CAH          2.2120     0.8430    -0.0040 c3         1 HXT       0.062600
     10 OAB          3.6220     0.4990    -0.0030 oh         1 HXT      -0.627000
     11 H1          -0.1420     2.0500    -0.0020 ha         1 HXT       0.122500
     12 H2          -2.5790     2.3910    -0.0050 ha         1 HXT       0.117500
     13 H3          -4.1310     0.4440    -0.0210 ha         1 HXT       0.115000
     14 H4          -3.2150    -1.8730    -0.0340 ha         1 HXT       0.117500
     15 H5          -0.7730    -2.2530    -0.0310 ha         1 HXT       0.122500
     16 H6           1.9740     1.4520    -0.8860 h1         1 HXT       0.036200
     17 H7           1.9700     1.4410     0.8840 h1         1 HXT       0.036200
     18 H8           4.1320     1.3410     0.0030 ho         1 HXT       0.444000
@<TRIPOS>BOND
     1     1     2 ar  
     2     1     6 ar  
     3     1    11 1   
     4     2     3 ar  
     5     2    12 1   
     6     3     4 ar  
     7     3    13 1   
     8     4     5 ar  
     9     4    14 1   
    10     5     6 ar  
    11     5    15 1   
    12     6     7 1   
    13     7     8 2   
    14     7     9 1   
    15     9    10 1   
    16     9    16 1   
    17     9    17 1   
    18    10    18 1   
@<TRIPOS>SUBSTRUCTURE
     1 HXT         1 TEMP              0 ****  ****    0 ROOT
