@<TRIPOS>MOLECULE
HXT
   18    18     1     0     0
SMALL
bcc


@<TRIPOS>ATOM
      1 CAF         -0.7740     1.1830    -0.0300 ca         1 HXT      -0.083500
      2 CAD         -2.1480     1.3730    -0.0200 ca         1 HXT      -0.141000
      3 CAC         -3.0000     0.2770    -0.0100 ca         1 HXT      -0.101000
      4 CAE         -2.4750    -1.0100    -0.0090 ca         1 HXT      -0.141000
      5 CAG         -1.1030    -1.2000    -0.0210 ca         1 HXT      -0.083500
      6 CAJ         -0.2380    -0.1050    -0.0310 ca         1 HXT      -0.175600
      7 CAI          1.2290    -0.3510    -0.0410 c          1 HXT       0.575700
      8 OAA          1.6790    -1.4740    -0.0760 o          1 HXT      -0.488100
      9 CAH          2.1460     0.8500    -0.0030 c3         1 HXT       0.039400
     10 OAB          3.4700     0.4130    -0.0010 oh         1 HXT      -0.564800
     11 H1          -0.1310     2.0530    -0.0400 ha         1 HXT       0.140500
     12 H2          -2.5520     2.3770    -0.0210 ha         1 HXT       0.135500
     13 H3          -4.0720     0.4230    -0.0010 ha         1 HXT       0.133000
     14 H4          -3.1370    -1.8650     0.0000 ha         1 HXT       0.135500
     15 H5          -0.7010    -2.2040    -0.0210 ha         1 HXT       0.140500
     16 H6           1.9130     1.4880    -0.8680 h1         1 HXT       0.036200
     17 H7           1.8950     1.4450     0.8870 h1         1 HXT       0.036200
     18 H8           4.0350     1.1890     0.0620 ho         1 HXT       0.405000
@<TRIPOS>BOND
     1     1     2 ar  
     2     1     6 ar  
     3     1    11 1   
     4     2     3 ar  
     5     2    12 1   
     6     3     4 ar  
     7     3    13 1   
     8     4     5 ar  
     9     4    14 1   
    10     5     6 ar  
    11     5    15 1   
    12     6     7 1   
    13     7     8 2   
    14     7     9 1   
    15     9    10 1   
    16     9    16 1   
    17     9    17 1   
    18    10    18 1   
@<TRIPOS>SUBSTRUCTURE
     1 HXT         1 TEMP              0 ****  ****    0 ROOT
