@<TRIPOS>MOLECULE
HXV
   55    57     1     0     0
SMALL
abcg2


@<TRIPOS>ATOM
      1 C10        -28.2160    10.6940   -25.2960 ca         1 HXV      -0.136900
      2 C13        -29.4230     7.2880   -24.8210 c3         1 HXV      -0.075400
      3 C15        -28.9520     5.6200   -26.7180 c3         1 HXV       0.163600
      4 C17        -30.4880     5.6840   -28.5490 ca         1 HXV       0.157100
      5 C20        -32.8140     7.8240   -27.6640 c3         1 HXV      -0.112700
      6 C21        -33.0460     8.6580   -28.8670 cc         1 HXV       0.404800
      7 C26        -32.1100     5.7610   -30.3140 ca         1 HXV      -0.069000
      8 C28        -29.8390     5.2070   -30.8190 ca         1 HXV      -0.064000
      9 C01        -28.4650    10.1320   -28.7700 c3         1 HXV      -0.082100
     10 C02        -29.2200    10.7740   -27.6070 c3         1 HXV      -0.131700
     11 C03        -28.2920    11.2790   -26.5410 ca         1 HXV       0.184300
     12 C05        -26.6910    12.7760   -25.9380 ca         1 HXV       0.401900
     13 C08        -27.3010    11.2500   -24.3750 ca         1 HXV       0.400900
     14 C12        -28.4700     8.3620   -25.3030 c3         1 HXV       0.147600
     15 C14        -28.9810     5.8840   -25.2250 c3         1 HXV      -0.073400
     16 C18        -31.8110     5.9020   -28.9660 ca         1 HXV      -0.125300
     17 C19        -32.8680     6.3210   -27.9850 c3         1 HXV      -0.012100
     18 C27        -31.1380     5.4170   -31.2470 ca         1 HXV      -0.140000
     19 C29        -29.5090     5.3350   -29.4740 ca         1 HXV      -0.196000
     20 N04        -27.5280    12.3300   -26.8670 nb         1 HXV      -0.277000
     21 N06        -25.8760    13.8080   -26.2830 nv         1 HXV      -1.046900
     22 N07        -26.5470    12.2920   -24.7030 nb         1 HXV      -0.325000
     23 N09        -27.1590    10.7230   -23.1430 nv         1 HXV      -1.064900
     24 N22        -32.1850     9.4260   -29.4920 nd         1 HXV      -0.388000
     25 N23        -32.8300     9.9540   -30.5340 nd         1 HXV      -0.044000
     26 N24        -34.0360     9.5480   -30.5790 nc         1 HXV      -0.208800
     27 N25        -34.1930     8.7380   -29.5460 na         1 HXV      -0.222700
     28 O11        -28.9880     9.6330   -24.9150 os         1 HXV      -0.350100
     29 O16        -30.2570     5.8290   -27.2300 os         1 HXV      -0.357100
     30 H132       -29.4900     7.3340   -23.7320 hc         1 HXV       0.054200
     31 H131       -30.4250     7.4920   -25.2050 hc         1 HXV       0.054200
     32 H151       -28.2360     6.2790   -27.2220 h1         1 HXV       0.037200
     33 H152       -28.6290     4.5900   -26.9040 h1         1 HXV       0.037200
     34 H201       -33.5680     8.0600   -26.9090 hc         1 HXV       0.077200
     35 H202       -31.8440     8.0930   -27.2470 hc         1 HXV       0.077200
     36 H261       -33.1310     5.9200   -30.6420 ha         1 HXV       0.107000
     37 H281       -29.0670     4.9350   -31.5270 ha         1 HXV       0.114000
     38 H013       -29.1650     9.7860   -29.5290 hc         1 HXV       0.039033
     39 H011       -27.7830    10.8420   -29.2360 hc         1 HXV       0.039033
     40 H012       -27.8800     9.2730   -28.4400 hc         1 HXV       0.039033
     41 H021       -29.8000    11.6210   -27.9810 hc         1 HXV       0.063700
     42 H022       -29.9350    10.0650   -27.1900 hc         1 HXV       0.063700
     43 H121       -28.3640     8.3280   -26.3930 h1         1 HXV       0.033200
     44 H122       -27.4720     8.2090   -24.8750 h1         1 HXV       0.033200
     45 H142       -27.9740     5.6880   -24.8440 hc         1 HXV       0.052200
     46 H141       -29.6330     5.1510   -24.7450 hc         1 HXV       0.052200
     47 H192       -32.7750     5.7730   -27.0460 hc         1 HXV       0.051200
     48 H191       -33.8540     6.0770   -28.3870 hc         1 HXV       0.051200
     49 H271       -31.3980     5.3120   -32.2920 ha         1 HXV       0.119000
     50 H291       -28.4870     5.1560   -29.1670 ha         1 HXV       0.117000
     51 H062       -26.1400    14.3480   -27.0900 hn         1 HXV       0.482500
     52 H061       -25.4510    14.3300   -25.5350 hn         1 HXV       0.482500
     53 H091       -26.6400    11.2490   -22.4600 hn         1 HXV       0.490000
     54 H092       -27.8640    10.1010   -22.7870 hn         1 HXV       0.490000
     55 H251       -35.0810     8.2870   -29.3680 hn         1 HXV       0.382000
@<TRIPOS>BOND
     1     1    11 ar  
     2     1    13 ar  
     3     1    28 1   
     4     2    14 1   
     5     2    15 1   
     6     2    30 1   
     7     2    31 1   
     8     3    15 1   
     9     3    29 1   
    10     3    32 1   
    11     3    33 1   
    12     4    16 ar  
    13     4    19 ar  
    14     4    29 1   
    15     5     6 1   
    16     5    17 1   
    17     5    34 1   
    18     5    35 1   
    19     6    24 2   
    20     6    27 1   
    21     7    16 ar  
    22     7    18 ar  
    23     7    36 1   
    24     8    18 ar  
    25     8    19 ar  
    26     8    37 1   
    27     9    10 1   
    28     9    38 1   
    29     9    39 1   
    30     9    40 1   
    31    10    11 1   
    32    10    41 1   
    33    10    42 1   
    34    11    20 ar  
    35    12    20 ar  
    36    12    21 1   
    37    12    22 ar  
    38    13    22 ar  
    39    13    23 1   
    40    14    28 1   
    41    14    43 1   
    42    14    44 1   
    43    15    45 1   
    44    15    46 1   
    45    16    17 1   
    46    17    47 1   
    47    17    48 1   
    48    18    49 1   
    49    19    50 1   
    50    21    51 1   
    51    21    52 1   
    52    23    53 1   
    53    23    54 1   
    54    24    25 1   
    55    25    26 2   
    56    26    27 1   
    57    27    55 1   
@<TRIPOS>SUBSTRUCTURE
     1 HXV         1 TEMP              0 ****  ****    0 ROOT
