@<TRIPOS>MOLECULE
HXV
   55    57     1     0     0
SMALL
No Charge or Current Charge


@<TRIPOS>ATOM
      1 C10        -28.1350    10.5490   -25.2680 ca         1 HXV      -0.136900
      2 C13        -29.3720     7.1120   -24.6250 c3         1 HXV      -0.075400
      3 C15        -28.9390     5.4370   -26.5770 c3         1 HXV       0.163600
      4 C17        -30.3620     5.8860   -28.5520 ca         1 HXV       0.157100
      5 C20        -32.9140     7.9210   -27.6610 c3         1 HXV      -0.112700
      6 C21        -33.1830     8.8720   -28.7940 cc         1 HXV       0.404800
      7 C26        -31.8610     6.2450   -30.4430 ca         1 HXV      -0.069000
      8 C28        -29.5230     5.7090   -30.8400 ca         1 HXV      -0.064000
      9 C01        -28.5760     9.4700   -28.7070 c3         1 HXV      -0.082100
     10 C02        -29.2900    10.2340   -27.5710 c3         1 HXV      -0.131700
     11 C03        -28.3320    10.9460   -26.6150 ca         1 HXV       0.184300
     12 C05        -26.9020    12.6990   -26.2670 ca         1 HXV       0.401900
     13 C08        -27.2710    11.3490   -24.4910 ca         1 HXV       0.400900
     14 C12        -28.3110     8.1320   -25.0850 c3         1 HXV       0.147600
     15 C14        -29.0590     5.6530   -25.0500 c3         1 HXV      -0.073400
     16 C18        -31.6510     6.1850   -29.0500 ca         1 HXV      -0.125300
     17 C19        -32.8240     6.4440   -28.1040 c3         1 HXV      -0.012100
     18 C27        -30.8010     6.0100   -31.3320 ca         1 HXV      -0.140000
     19 C29        -29.3010     5.6450   -29.4550 ca         1 HXV      -0.196000
     20 N04        -27.7060    12.0360   -27.1090 nb         1 HXV      -0.277000
     21 N06        -26.2790    13.7890   -26.7700 nv         1 HXV      -1.046900
     22 N07        -26.6490    12.4250   -24.9830 nb         1 HXV      -0.325000
     23 N09        -27.0130    11.0790   -23.1830 nv         1 HXV      -1.064900
     24 N22        -32.3480     9.7510   -29.3060 nd         1 HXV      -0.388000
     25 N23        -33.0260    10.3920   -30.3170 nd         1 HXV      -0.044000
     26 N24        -34.2460     9.9440   -30.4410 nc         1 HXV      -0.208800
     27 N25        -34.3530     8.9890   -29.4840 na         1 HXV      -0.222700
     28 O11        -28.7680     9.4450   -24.7250 os         1 HXV      -0.350100
     29 O16        -30.1760     5.8480   -27.1830 os         1 HXV      -0.357100
     30 H132       -29.4540     7.1530   -23.5320 hc         1 HXV       0.054200
     31 H131       -30.3490     7.4050   -25.0260 hc         1 HXV       0.054200
     32 H151       -28.0970     6.0250   -26.9620 h1         1 HXV       0.037200
     33 H152       -28.7420     4.3770   -26.7840 h1         1 HXV       0.037200
     34 H201       -33.7100     8.0210   -26.9130 hc         1 HXV       0.077200
     35 H202       -31.9820     8.2000   -27.1560 hc         1 HXV       0.077200
     36 H261       -32.8480     6.4760   -30.8380 ha         1 HXV       0.107000
     37 H281       -28.7030     5.5260   -31.5320 ha         1 HXV       0.114000
     38 H013       -29.3090     8.9470   -29.3340 hc         1 HXV       0.039033
     39 H011       -28.0120    10.1610   -29.3460 hc         1 HXV       0.039033
     40 H012       -27.8790     8.7270   -28.3060 hc         1 HXV       0.039033
     41 H021       -29.9690    10.9700   -28.0190 hc         1 HXV       0.063700
     42 H022       -29.9340     9.5360   -27.0260 hc         1 HXV       0.063700
     43 H121       -28.1830     8.0600   -26.1690 h1         1 HXV       0.033200
     44 H122       -27.3450     7.9140   -24.6110 h1         1 HXV       0.033200
     45 H142       -28.1220     5.3350   -24.5770 hc         1 HXV       0.052200
     46 H141       -29.8440     4.9930   -24.6610 hc         1 HXV       0.052200
     47 H192       -32.7440     5.8100   -27.2130 hc         1 HXV       0.051200
     48 H191       -33.7680     6.1540   -28.5830 hc         1 HXV       0.051200
     49 H271       -30.9720     6.0600   -32.4060 ha         1 HXV       0.119000
     50 H291       -28.3010     5.4110   -29.1030 ha         1 HXV       0.117000
     51 H062       -26.6050    14.1650   -27.6560 hn         1 HXV       0.482500
     52 H061       -25.8430    14.4420   -26.1230 hn         1 HXV       0.482500
     53 H091       -26.6050    11.8140   -22.6120 hn         1 HXV       0.490000
     54 H092       -27.6210    10.4140   -22.7130 hn         1 HXV       0.490000
     55 H251       -35.2040     8.4590   -29.3350 hn         1 HXV       0.382000
@<TRIPOS>BOND
     1     1    11 ar  
     2     1    13 ar  
     3     1    28 1   
     4     2    14 1   
     5     2    15 1   
     6     2    30 1   
     7     2    31 1   
     8     3    15 1   
     9     3    29 1   
    10     3    32 1   
    11     3    33 1   
    12     4    16 ar  
    13     4    19 ar  
    14     4    29 1   
    15     5     6 1   
    16     5    17 1   
    17     5    34 1   
    18     5    35 1   
    19     6    24 2   
    20     6    27 1   
    21     7    16 ar  
    22     7    18 ar  
    23     7    36 1   
    24     8    18 ar  
    25     8    19 ar  
    26     8    37 1   
    27     9    10 1   
    28     9    38 1   
    29     9    39 1   
    30     9    40 1   
    31    10    11 1   
    32    10    41 1   
    33    10    42 1   
    34    11    20 ar  
    35    12    20 ar  
    36    12    21 1   
    37    12    22 ar  
    38    13    22 ar  
    39    13    23 1   
    40    14    28 1   
    41    14    43 1   
    42    14    44 1   
    43    15    45 1   
    44    15    46 1   
    45    16    17 1   
    46    17    47 1   
    47    17    48 1   
    48    18    49 1   
    49    19    50 1   
    50    21    51 1   
    51    21    52 1   
    52    23    53 1   
    53    23    54 1   
    54    24    25 1   
    55    25    26 2   
    56    26    27 1   
    57    27    55 1   
@<TRIPOS>SUBSTRUCTURE
     1 HXV         1 TEMP              0 ****  ****    0 ROOT
