@<TRIPOS>MOLECULE
HXW
   50    53     1     0     0
SMALL
No Charge or Current Charge


@<TRIPOS>ATOM
      1 C1           3.4060    46.9490    59.5630 c6         1 HXW       0.240500
      2 C2           3.7960    45.7040    60.3960 c6         1 HXW      -0.125400
      3 C3           4.1340    44.5170    59.4590 c6         1 HXW       0.163800
      4 N1           3.0150    44.2090    58.5230 n3         1 HXW      -0.715600
      5 C7           4.0700    49.1160    60.7110 ca         1 HXW       0.430900
      6 C6           2.2540    46.6090    58.5800 c6         1 HXW      -0.125400
      7 N2           5.3510    48.8140    60.4190 nb         1 HXW      -0.341000
      8 C5           2.6480    45.3970    57.7000 c6         1 HXW       0.163800
      9 C4           1.8570    43.5460    59.1710 c3         1 HXW       0.152100
     10 C8           6.2910    49.7430    60.6650 ca         1 HXW       0.475900
     11 C9           8.7640    49.9340    60.8480 c2         1 HXW       0.010000
     12 N4           8.2880    45.5820    57.2530 n1         1 HXW      -0.462000
     13 C12          7.9600    48.5610    59.1060 c5         1 HXW       0.243500
     14 C11          9.3970    49.1130    58.7650 c5         1 HXW      -0.053200
     15 C10          9.8070    49.8190    60.0380 c2         1 HXW      -0.292200
     16 N3           7.6160    49.3730    60.3210 nh         1 HXW      -0.673100
     17 C15          5.9130    50.9940    61.1880 ca         1 HXW      -0.368000
     18 C18          4.5790    51.2080    61.4540 ca         1 HXW       0.204800
     19 C17          4.3000    52.5250    61.9590 cc         1 HXW      -0.305800
     20 C16          5.4470    53.2980    62.0430 cd         1 HXW      -0.129400
     21 S            6.9150    52.4320    61.5060 ss         1 HXW       0.059400
     22 N5           3.6340    50.2860    61.2280 nb         1 HXW      -0.252000
     23 N            3.0920    48.1170    60.4500 nh         1 HXW      -0.780300
     24 C            1.7630    48.1610    61.1180 c3         1 HXW       0.226100
     25 H1           4.2660    47.1910    58.9190 h1         1 HXW       0.086700
     26 H2           2.9850    45.4260    61.0800 hc         1 HXW       0.050200
     27 H3           4.6680    45.9320    61.0230 hc         1 HXW       0.050200
     28 H4           4.3860    43.6340    60.0660 h1         1 HXW       0.055950
     29 H5           5.0390    44.7700    58.8860 h1         1 HXW       0.055950
     30 H7           2.0460    47.4750    57.9380 hc         1 HXW       0.050200
     31 H8           1.3220    46.3830    59.1120 hc         1 HXW       0.050200
     32 H9           3.4990    45.6860    57.0640 h1         1 HXW       0.055950
     33 H10          1.8180    45.1540    57.0200 h1         1 HXW       0.055950
     34 H11          2.1760    42.6290    59.6840 h1         1 HXW       0.030033
     35 H12          1.3760    44.1990    59.9100 h1         1 HXW       0.030033
     36 H13          1.1050    43.2670    58.4220 h1         1 HXW       0.030033
     37 H14          8.7520    50.3940    61.8420 h4         1 HXW       0.217000
     38 H17          7.2590    48.7660    58.2820 h1         1 HXW       0.088700
     39 H18         10.1030    48.3210    58.4910 hc         1 HXW       0.066200
     40 H19          9.3630    49.8200    57.9270 hc         1 HXW       0.066200
     41 H20         10.8090    50.1880    60.2690 ha         1 HXW       0.210000
     42 H21          3.3100    52.8800    62.2370 ha         1 HXW       0.218000
     43 H22          5.5330    54.3260    62.3840 h4         1 HXW       0.219000
     44 H23          1.0590    48.7700    60.5340 h1         1 HXW       0.042367
     45 H24          1.3420    47.1540    61.2350 h1         1 HXW       0.042367
     46 H25          1.8440    48.5890    62.1260 h1         1 HXW       0.042367
     47 C13          7.9330    47.0420    59.4100 c3         1 HXW      -0.037300
     48 H15          8.6970    46.7890    60.1530 hc         1 HXW       0.087200
     49 C14          8.1450    46.2240    58.2140 c1         1 HXW       0.299900
     50 H16          6.9700    46.7520    59.8410 hc         1 HXW       0.087200
@<TRIPOS>BOND
     1     1     2 1   
     2     1     6 1   
     3     1    23 1   
     4     1    25 1   
     5     2     3 1   
     6     2    26 1   
     7     2    27 1   
     8     3     4 1   
     9     3    28 1   
    10     3    29 1   
    11     4     8 1   
    12     4     9 1   
    13     5     7 ar  
    14     5    22 ar  
    15     5    23 1   
    16     6     8 1   
    17     6    30 1   
    18     6    31 1   
    19     7    10 ar  
    20     8    32 1   
    21     8    33 1   
    22     9    34 1   
    23     9    35 1   
    24     9    36 1   
    25    10    16 1   
    26    10    17 ar  
    27    11    15 2   
    28    11    16 1   
    29    11    37 1   
    30    12    49 3   
    31    13    14 1   
    32    13    16 1   
    33    13    38 1   
    34    13    47 1   
    35    14    15 1   
    36    14    39 1   
    37    14    40 1   
    38    15    41 1   
    39    17    18 ar  
    40    17    21 1   
    41    18    19 1   
    42    18    22 ar  
    43    19    20 2   
    44    19    42 1   
    45    20    21 1   
    46    20    43 1   
    47    23    24 1   
    48    24    44 1   
    49    24    45 1   
    50    24    46 1   
    51    47    48 1   
    52    47    49 1   
    53    47    50 1   
@<TRIPOS>SUBSTRUCTURE
     1 HXW         1 TEMP              0 ****  ****    0 ROOT
