@<TRIPOS>MOLECULE
HXW
   50    53     1     0     0
SMALL
abcg2


@<TRIPOS>ATOM
      1 C1           3.5820    46.9020    59.7100 c6         1 HXW       0.240500
      2 C2           3.5410    45.6320    60.5640 c6         1 HXW      -0.125400
      3 C3           3.9750    44.4240    59.7220 c6         1 HXW       0.163800
      4 N1           3.1990    44.2460    58.4930 n3         1 HXW      -0.715600
      5 C7           4.0880    49.0830    60.7490 ca         1 HXW       0.430900
      6 C6           2.7640    46.7250    58.4280 c6         1 HXW      -0.125400
      7 N2           5.3270    48.9600    60.2250 nb         1 HXW      -0.341000
      8 C5           3.2330    45.4660    57.6840 c6         1 HXW       0.163800
      9 C4           1.8480    43.7520    58.7310 c3         1 HXW       0.152100
     10 C8           6.2530    49.8810    60.4730 ca         1 HXW       0.475900
     11 C9           8.6500    50.4120    60.0050 c2         1 HXW       0.010000
     12 N4           8.0410    45.0880    58.4170 n1         1 HXW      -0.462000
     13 C12          7.7230    48.4940    59.0320 c5         1 HXW       0.243500
     14 C11          9.0500    48.8510    58.3250 c5         1 HXW      -0.053200
     15 C10          9.5830    49.9890    59.1550 c2         1 HXW      -0.292200
     16 N3           7.4740    49.6530    59.9120 nh         1 HXW      -0.673100
     17 C15          5.9150    51.0010    61.2720 ca         1 HXW      -0.368000
     18 C18          4.5960    51.0470    61.7630 ca         1 HXW       0.204800
     19 C17          4.3580    52.2280    62.5430 cc         1 HXW      -0.305800
     20 C16          5.4500    53.0290    62.6230 cd         1 HXW      -0.129400
     21 S            6.8180    52.4070    61.7710 ss         1 HXW       0.059400
     22 N5           3.6740    50.0950    61.5230 nb         1 HXW      -0.252000
     23 N            3.1930    48.0970    60.4650 nh         1 HXW      -0.780300
     24 C            1.8560    48.1740    61.0320 c3         1 HXW       0.226100
     25 H1           4.6150    47.0660    59.4160 h1         1 HXW       0.086700
     26 H2           2.5360    45.4690    60.9600 hc         1 HXW       0.050200
     27 H3           4.2130    45.7450    61.4200 hc         1 HXW       0.050200
     28 H4           3.9100    43.5070    60.3110 h1         1 HXW       0.055950
     29 H5           5.0240    44.5550    59.4350 h1         1 HXW       0.055950
     30 H7           2.8950    47.6010    57.7870 hc         1 HXW       0.050200
     31 H8           1.6990    46.6470    58.6580 hc         1 HXW       0.050200
     32 H9           4.2670    45.6170    57.3560 h1         1 HXW       0.055950
     33 H10          2.6270    45.3080    56.7900 h1         1 HXW       0.055950
     34 H11          1.9030    42.8020    59.2660 h1         1 HXW       0.030033
     35 H12          1.2100    44.4290    59.3170 h1         1 HXW       0.030033
     36 H13          1.3560    43.5770    57.7720 h1         1 HXW       0.030033
     37 H14          8.7300    51.2120    60.7210 h4         1 HXW       0.217000
     38 H17          6.8930    48.3830    58.3390 h1         1 HXW       0.088700
     39 H18          9.7270    47.9950    58.2910 hc         1 HXW       0.066200
     40 H19          8.8770    49.1620    57.2900 hc         1 HXW       0.066200
     41 H20         10.5690    50.4150    59.0550 ha         1 HXW       0.210000
     42 H21          3.4080    52.4480    63.0080 ha         1 HXW       0.218000
     43 H22          5.5430    53.9700    63.1410 h4         1 HXW       0.219000
     44 H23          1.3540    49.0940    60.7290 h1         1 HXW       0.042367
     45 H24          1.2740    47.3290    60.6770 h1         1 HXW       0.042367
     46 H25          1.8790    48.1480    62.1240 h1         1 HXW       0.042367
     47 C13          7.8280    47.2190    59.8980 c3         1 HXW      -0.037300
     48 H15          8.6930    47.2890    60.5630 hc         1 HXW       0.087200
     49 C14          7.9550    46.0230    59.0830 c1         1 HXW       0.299900
     50 H16          6.9290    47.1220    60.5070 hc         1 HXW       0.087200
@<TRIPOS>BOND
     1     1     2 1   
     2     1     6 1   
     3     1    23 1   
     4     1    25 1   
     5     2     3 1   
     6     2    26 1   
     7     2    27 1   
     8     3     4 1   
     9     3    28 1   
    10     3    29 1   
    11     4     8 1   
    12     4     9 1   
    13     5     7 ar  
    14     5    22 ar  
    15     5    23 1   
    16     6     8 1   
    17     6    30 1   
    18     6    31 1   
    19     7    10 ar  
    20     8    32 1   
    21     8    33 1   
    22     9    34 1   
    23     9    35 1   
    24     9    36 1   
    25    10    16 1   
    26    10    17 ar  
    27    11    15 2   
    28    11    16 1   
    29    11    37 1   
    30    12    49 3   
    31    13    14 1   
    32    13    16 1   
    33    13    38 1   
    34    13    47 1   
    35    14    15 1   
    36    14    39 1   
    37    14    40 1   
    38    15    41 1   
    39    17    18 ar  
    40    17    21 1   
    41    18    19 1   
    42    18    22 ar  
    43    19    20 2   
    44    19    42 1   
    45    20    21 1   
    46    20    43 1   
    47    23    24 1   
    48    24    44 1   
    49    24    45 1   
    50    24    46 1   
    51    47    48 1   
    52    47    49 1   
    53    47    50 1   
@<TRIPOS>SUBSTRUCTURE
     1 HXW         1 TEMP              0 ****  ****    0 ROOT
