@<TRIPOS>MOLECULE
HXX
   15    15     1     0     0
SMALL
bcc


@<TRIPOS>ATOM
      1 C2           0.7840    -0.6450     0.0260 ca         1 HXX       0.147100
      2 C3           1.7440     0.3620     0.0570 ca         1 HXX      -0.042600
      3 C4           1.3840     1.6990     0.0810 ca         1 HXX      -0.137000
      4 C5           0.0410     2.0380     0.0420 ca         1 HXX      -0.155000
      5 C6          -0.9080     1.0340    -0.0440 ca         1 HXX       0.059400
      6 O1          -2.1520    -1.6500    -1.1470 o          1 HXX      -0.801300
      7 O2          -1.7460    -2.0350     1.0200 o          1 HXX      -0.801300
      8 C1          -0.5680    -0.3110    -0.0290 ca         1 HXX      -0.116600
      9 O3           1.1390    -1.9490    -0.0020 oh         1 HXX      -0.487100
     10 CL1          3.4210    -0.0720     0.0900 cl         1 HXX      -0.157400
     11 CL2         -2.5830     1.4900    -0.0820 cl         1 HXX      -0.123400
     12 H4           2.1410     2.4700     0.1220 ha         1 HXX       0.125000
     13 H5          -0.2290     3.0900     0.0680 ha         1 HXX       0.126000
     14 HO2          1.6810    -2.1880     0.7590 ho         1 HXX       0.416000
     15 C7          -1.6160    -1.4270    -0.0550 c          1 HXX       0.949200
@<TRIPOS>BOND
     1     1     2 ar  
     2     1     8 ar  
     3     1     9 1   
     4     2     3 ar  
     5     2    10 1   
     6     3     4 ar  
     7     3    12 1   
     8     4     5 ar  
     9     4    13 1   
    10     5     8 ar  
    11     5    11 1   
    12     6    15 1   
    13     7    15 1   
    14     8    15 1   
    15     9    14 1   
@<TRIPOS>SUBSTRUCTURE
     1 HXX         1 TEMP              0 ****  ****    0 ROOT
