@<TRIPOS>MOLECULE
HXX
   15    15     1     0     0
SMALL
No Charge or Current Charge


@<TRIPOS>ATOM
      1 C2           0.7620    -0.6930     0.1120 ca         1 HXX       0.147100
      2 C3           1.7510     0.3130     0.1790 ca         1 HXX       0.049000
      3 C4           1.3860     1.6680     0.1410 ca         1 HXX      -0.119000
      4 C5           0.0310     2.0220     0.0360 ca         1 HXX      -0.137000
      5 C6          -0.9570     1.0250    -0.0320 ca         1 HXX       0.151000
      6 O1          -1.9900    -1.7910    -1.1730 o          1 HXX      -0.696000
      7 O2          -2.1540    -1.7750     0.9810 o          1 HXX      -0.696000
      8 C1          -0.5970    -0.3370     0.0060 ca         1 HXX      -0.116600
      9 O3           1.1350    -2.0100     0.1500 oh         1 HXX      -0.526100
     10 Cl1          3.4580    -0.1140     0.3130 cl         1 HXX      -0.249000
     11 Cl2         -2.6460     1.5180    -0.1640 cl         1 HXX      -0.215000
     12 H4           2.1490     2.4410     0.1940 ha         1 HXX       0.107000
     13 H5          -0.2550     3.0710     0.0060 ha         1 HXX       0.108000
     14 HO2          2.1140    -2.0410     0.2250 ho         1 HXX       0.455000
     15 C7          -1.6520    -1.3910    -0.0670 c          1 HXX       0.738600
@<TRIPOS>BOND
     1     1     2 ar  
     2     1     8 ar  
     3     1     9 1   
     4     2     3 ar  
     5     2    10 1   
     6     3     4 ar  
     7     3    12 1   
     8     4     5 ar  
     9     4    13 1   
    10     5     8 ar  
    11     5    11 1   
    12     6    15 1   
    13     7    15 1   
    14     8    15 1   
    15     9    14 1   
@<TRIPOS>SUBSTRUCTURE
     1 HXX         1 TEMP              0 ****  ****    0 ROOT
