@<TRIPOS>MOLECULE
HXY
   27    28     1     0     0
SMALL
abcg2


@<TRIPOS>ATOM
      1 C           -1.8040     0.2130    -0.0340 ca         1 HXY      -0.017900
      2 N            3.2190     0.3600    -0.0320 n3         1 HXY      -0.721600
      3 BR          -3.6230    -0.0410     0.4170 br         1 HXY      -0.105100
      4 C1          -0.9140     0.6510     0.9380 ca         1 HXY      -0.088500
      5 C2           0.4170     0.8330     0.6000 ca         1 HXY      -0.099500
      6 C3           0.8740     0.5860    -0.6930 ca         1 HXY      -0.072300
      7 C4           2.3160     0.8250    -1.0540 c3         1 HXY       0.216100
      8 C5           4.6010     0.7540    -0.2390 c5         1 HXY       0.157800
      9 C6           5.3610    -0.0660     0.8020 c5         1 HXY      -0.079900
     10 C7           4.4870    -1.3230     1.0050 c5         1 HXY      -0.079900
     11 C8           3.2660    -1.0840     0.1130 c5         1 HXY       0.157800
     12 C9          -0.0380     0.1410    -1.6430 ca         1 HXY      -0.099500
     13 C10         -1.3790    -0.0450    -1.3260 ca         1 HXY      -0.088500
     14 H1          -1.2460     0.8510     1.9480 ha         1 HXY       0.128500
     15 H2           1.1170     1.1610     1.3590 ha         1 HXY       0.123500
     16 H4           2.4710     1.9010    -1.1830 h1         1 HXY       0.039700
     17 H4A          2.5300     0.3650    -2.0350 h1         1 HXY       0.039700
     18 H5           4.9500     0.4970    -1.2540 h1         1 HXY       0.036950
     19 H5A          4.7240     1.8320    -0.1160 h1         1 HXY       0.036950
     20 H6           6.3700    -0.3040     0.4670 hc         1 HXY       0.047200
     21 H6A          5.4530     0.4920     1.7350 hc         1 HXY       0.047200
     22 H7           5.0030    -2.2410     0.7280 hc         1 HXY       0.047200
     23 H7A          4.1910    -1.4250     2.0490 hc         1 HXY       0.047200
     24 H8           2.3390    -1.4710     0.5410 h1         1 HXY       0.036950
     25 H8A          3.4050    -1.5760    -0.8660 h1         1 HXY       0.036950
     26 H9           0.2950    -0.0720    -2.6510 ha         1 HXY       0.123500
     27 H10         -2.0670    -0.3930    -2.0850 ha         1 HXY       0.128500
@<TRIPOS>BOND
     1     1     3 1   
     2     1     4 ar  
     3     1    13 ar  
     4     2     7 1   
     5     2     8 1   
     6     2    11 1   
     7     4     5 ar  
     8     4    14 1   
     9     5     6 ar  
    10     5    15 1   
    11     6     7 1   
    12     6    12 ar  
    13     7    16 1   
    14     7    17 1   
    15     8     9 1   
    16     8    18 1   
    17     8    19 1   
    18     9    10 1   
    19     9    20 1   
    20     9    21 1   
    21    10    11 1   
    22    10    22 1   
    23    10    23 1   
    24    11    24 1   
    25    11    25 1   
    26    12    13 ar  
    27    12    26 1   
    28    13    27 1   
@<TRIPOS>SUBSTRUCTURE
     1 HXY         1 TEMP              0 ****  ****    0 ROOT
