@<TRIPOS>MOLECULE
HXY
   27    28     1     0     0
SMALL
No Charge or Current Charge


@<TRIPOS>ATOM
      1 C           -1.8280     0.1140    -0.0010 ca         1 HXY      -0.017900
      2 N            3.2700     0.3890    -0.0130 n3         1 HXY      -0.721600
      3 Br          -3.6490    -0.3120     0.3980 br         1 HXY      -0.105100
      4 C1          -1.0900     0.9280     0.8750 ca         1 HXY      -0.088500
      5 C2           0.2490     1.2400     0.5810 ca         1 HXY      -0.099500
      6 C3           0.8560     0.7410    -0.5890 ca         1 HXY      -0.072300
      7 C4           2.3100     1.0810    -0.9020 c3         1 HXY       0.216100
      8 C5           4.6900     0.7170    -0.2470 c5         1 HXY       0.157800
      9 C6           5.3930    -0.2270     0.7630 c5         1 HXY      -0.079900
     10 C7           4.4340    -1.4570     0.8560 c5         1 HXY      -0.079900
     11 C8           3.2570    -1.0870    -0.0860 c5         1 HXY       0.157800
     12 C9           0.1080    -0.0750    -1.4620 ca         1 HXY      -0.099500
     13 C10         -1.2310    -0.3880    -1.1690 ca         1 HXY      -0.088500
     14 H1          -1.5530     1.3150     1.7800 ha         1 HXY       0.128500
     15 H2           0.8200     1.8660     1.2630 ha         1 HXY       0.123500
     16 H4           2.4360     2.1680    -0.8040 h1         1 HXY       0.039700
     17 H4A          2.5220     0.8300    -1.9510 h1         1 HXY       0.039700
     18 H5           4.9890     0.4870    -1.2800 h1         1 HXY       0.036950
     19 H5A          4.9170     1.7740    -0.0520 h1         1 HXY       0.036950
     20 H6           6.3990    -0.5030     0.4280 hc         1 HXY       0.047200
     21 H6A          5.5000     0.2560     1.7410 hc         1 HXY       0.047200
     22 H7           4.9180    -2.3910     0.5480 hc         1 HXY       0.047200
     23 H7A          4.0830    -1.6000     1.8840 hc         1 HXY       0.047200
     24 H8           2.3070    -1.5210     0.2530 h1         1 HXY       0.036950
     25 H8A          3.4460    -1.4360    -1.1120 h1         1 HXY       0.036950
     26 H9           0.5660    -0.4700    -2.3670 ha         1 HXY       0.123500
     27 H10         -1.8030    -1.0190    -1.8460 ha         1 HXY       0.128500
@<TRIPOS>BOND
     1     1     3 1   
     2     1     4 ar  
     3     1    13 ar  
     4     2     7 1   
     5     2     8 1   
     6     2    11 1   
     7     4     5 ar  
     8     4    14 1   
     9     5     6 ar  
    10     5    15 1   
    11     6     7 1   
    12     6    12 ar  
    13     7    16 1   
    14     7    17 1   
    15     8     9 1   
    16     8    18 1   
    17     8    19 1   
    18     9    10 1   
    19     9    20 1   
    20     9    21 1   
    21    10    11 1   
    22    10    22 1   
    23    10    23 1   
    24    11    24 1   
    25    11    25 1   
    26    12    13 ar  
    27    12    26 1   
    28    13    27 1   
@<TRIPOS>SUBSTRUCTURE
     1 HXY         1 TEMP              0 ****  ****    0 ROOT
