@<TRIPOS>MOLECULE
HY1
   17    17     1     0     0
SMALL
No Charge or Current Charge


@<TRIPOS>ATOM
      1 C1           0.1460     0.4100    -0.0230 ca         1 HY1      -0.084300
      2 C2           1.2400     0.0580     0.7920 ca         1 HY1      -0.104000
      3 C3           1.0330    -0.3240     2.1290 ca         1 HY1      -0.107500
      4 C4          -0.2680    -0.3560     2.6590 ca         1 HY1      -0.106000
      5 C5          -1.3620    -0.0070     1.8500 ca         1 HY1      -0.107500
      6 C6          -1.1560     0.3750     0.5130 ca         1 HY1      -0.104000
      7 CA           0.3700     0.8210    -1.4750 c3         1 HY1      -0.157100
      8 C            0.3350    -0.3940    -2.4060 c          1 HY1       0.577900
      9 O           -0.7010    -0.9600    -2.7380 o          1 HY1      -0.512100
     10 H2           2.2510     0.0790     0.3920 ha         1 HY1       0.114500
     11 H3           1.8820    -0.5940     2.7550 ha         1 HY1       0.114500
     12 H4          -0.4270    -0.6520     3.6940 ha         1 HY1       0.114000
     13 H5          -2.3700    -0.0320     2.2590 ha         1 HY1       0.114500
     14 H6          -2.0100     0.6410    -0.1070 ha         1 HY1       0.114500
     15 HA1          1.3510     1.3000    -1.5700 hc         1 HY1       0.073200
     16 HA2         -0.4100     1.5240    -1.7880 hc         1 HY1       0.073200
     17 H            1.3250    -0.7450    -2.7730 h4         1 HY1      -0.013800
@<TRIPOS>BOND
     1     1     2 ar  
     2     1     6 ar  
     3     1     7 1   
     4     2     3 ar  
     5     2    10 1   
     6     3     4 ar  
     7     3    11 1   
     8     4     5 ar  
     9     4    12 1   
    10     5     6 ar  
    11     5    13 1   
    12     6    14 1   
    13     7     8 1   
    14     7    15 1   
    15     7    16 1   
    16     8     9 2   
    17     8    17 1   
@<TRIPOS>SUBSTRUCTURE
     1 HY1         1 TEMP              0 ****  ****    0 ROOT
