@<TRIPOS>MOLECULE
HY1
   17    17     1     0     0
SMALL
abcg2


@<TRIPOS>ATOM
      1 C1           0.1590     0.4380    -0.0220 ca         1 HY1      -0.084300
      2 C2           1.2490     0.1400     0.7900 ca         1 HY1      -0.104000
      3 C3           1.0610    -0.2670     2.1050 ca         1 HY1      -0.107500
      4 C4          -0.2220    -0.3820     2.6220 ca         1 HY1      -0.106000
      5 C5          -1.3160    -0.0890     1.8170 ca         1 HY1      -0.107500
      6 C6          -1.1260     0.3150     0.5030 ca         1 HY1      -0.104000
      7 CA           0.3500     0.8320    -1.4640 c3         1 HY1      -0.157100
      8 C            0.2230    -0.3840    -2.3400 c          1 HY1       0.577900
      9 O           -0.5390    -0.4910    -3.2660 o          1 HY1      -0.512100
     10 H2           2.2540     0.2350     0.3960 ha         1 HY1       0.114500
     11 H3           1.9190    -0.4890     2.7260 ha         1 HY1       0.114500
     12 H4          -0.3710    -0.6950     3.6470 ha         1 HY1       0.114000
     13 H5          -2.3200    -0.1760     2.2120 ha         1 HY1       0.114500
     14 H6          -1.9850     0.5410    -0.1180 ha         1 HY1       0.114500
     15 HA1          1.3580     1.2320    -1.6090 hc         1 HY1       0.073200
     16 HA2         -0.3660     1.5930    -1.7760 hc         1 HY1       0.073200
     17 H            0.9010    -1.2110    -2.0600 h4         1 HY1      -0.013800
@<TRIPOS>BOND
     1     1     2 ar  
     2     1     6 ar  
     3     1     7 1   
     4     2     3 ar  
     5     2    10 1   
     6     3     4 ar  
     7     3    11 1   
     8     4     5 ar  
     9     4    12 1   
    10     5     6 ar  
    11     5    13 1   
    12     6    14 1   
    13     7     8 1   
    14     7    15 1   
    15     7    16 1   
    16     8     9 2   
    17     8    17 1   
@<TRIPOS>SUBSTRUCTURE
     1 HY1         1 TEMP              0 ****  ****    0 ROOT
