@<TRIPOS>MOLECULE
HY2
   83    89     1     0     0
SMALL
No Charge or Current Charge


@<TRIPOS>ATOM
      1 C1          11.2490     2.3210     1.6050 c5         1 HY2      -0.086400
      2 O2           5.4500    -2.9620     0.3370 os         1 HY2      -0.321100
      3 C3          12.0670     0.3770     0.5000 c5         1 HY2       0.095000
      4 N4          10.5980     0.4440     0.3180 n          1 HY2      -0.412800
      5 O5          10.4080    -1.7380    -0.3370 o          1 HY2      -0.561000
      6 C7           6.1820    -1.8110     0.0880 ca         1 HY2       0.098100
      7 C9           6.2140     0.5540    -0.5010 ca         1 HY2      -0.165000
      8 N10          8.2560     1.7560    -0.7690 nu         1 HY2      -0.886200
      9 C11          9.1480     2.5100     0.1280 c3         1 HY2       0.159800
     10 C12          6.0670    -4.2180     0.6720 c3         1 HY2       0.143900
     11 C13          3.3120     0.4950    -0.6050 c3         1 HY2       0.159600
     12 O13          4.1040    -0.6610    -0.2880 os         1 HY2      -0.323100
     13 C14          1.8330     0.0730    -0.5620 c3         1 HY2      -0.083400
     14 C15          0.8780     1.2420    -0.8820 c3         1 HY2       0.170800
     15 N16         -0.5500     0.8600    -1.0050 n3         1 HY2      -0.717600
     16 C17         -1.3890     1.9840    -1.5240 c6         1 HY2       0.163800
     17 C18         -2.8880     1.5800    -1.7000 c6         1 HY2       0.167800
     18 N19         -3.4920     1.0580    -0.4350 n3         1 HY2      -0.727600
     19 C1A          9.9950     1.5880     1.0400 c5         1 HY2       0.072700
     20 C20         -2.6540    -0.0680     0.0910 c6         1 HY2       0.167800
     21 C21         -1.1520     0.3290     0.2600 c6         1 HY2       0.163800
     22 C22         -4.9280     0.7130    -0.6020 c3         1 HY2       0.156800
     23 C23         -5.6770     0.3720     0.7090 c3         1 HY2       0.089000
     24 N24         -7.1320     0.1110     0.4970 n          1 HY2      -0.374400
     25 C25         -7.5370    -1.2080     0.2390 c          1 HY2       0.590600
     26 O25         -6.7260    -2.1220     0.1530 o          1 HY2      -0.522500
     27 C26         -9.0080    -1.4620     0.0600 ca         1 HY2      -0.164600
     28 C27         -9.4710    -2.7700    -0.2070 ca         1 HY2      -0.017000
     29 C28        -10.8420    -3.0190    -0.3760 ca         1 HY2      -0.131000
     30 C29        -11.7660    -1.9680    -0.2820 ca         1 HY2      -0.056000
     31 C2D         12.2330     1.1500     1.8300 c5         1 HY2      -0.098400
     32 C30        -11.3170    -0.6620    -0.0160 ca         1 HY2      -0.062000
     33 C31        -12.2450     0.3900     0.0790 ca         1 HY2      -0.056000
     34 C32        -11.8010     1.6940     0.3440 ca         1 HY2      -0.131000
     35 C33        -10.4310     1.9500     0.5150 ca         1 HY2      -0.017000
     36 C34         -9.9360    -0.4070     0.1550 ca         1 HY2       0.021000
     37 C35         -9.4880     0.9010     0.4220 ca         1 HY2      -0.164600
     38 C36         -8.0240     1.1880     0.6060 c          1 HY2       0.590600
     39 O36         -7.6310     2.3260     0.8350 o          1 HY2      -0.522500
     40 C5A          8.3260    -0.6100    -0.1010 ca         1 HY2      -0.180600
     41 C5D          9.8410    -0.6920    -0.0430 c          1 HY2       0.576600
     42 C6D          7.5930    -1.7970     0.1440 ca         1 HY2      -0.120000
     43 C8D          5.4880    -0.6250    -0.2350 ca         1 HY2       0.139100
     44 C9A          7.6160     0.5680    -0.4310 ca         1 HY2       0.247000
     45 H6D          8.1400    -2.7030     0.3870 ha         1 HY2       0.137000
     46 H9           5.7010     1.4720    -0.7650 ha         1 HY2       0.135000
     47 HN10         7.7060     2.3460    -1.3950 hn         1 HY2       0.432000
     48 H11          9.8140     3.1410    -0.4780 h1         1 HY2       0.058200
     49 H1          11.6640     3.0400     0.8870 hc         1 HY2       0.053700
     50 H1A          9.3600     1.2150     1.8560 h1         1 HY2       0.061700
     51 H1B         11.0300     2.8730     2.5260 hc         1 HY2       0.053700
     52 H17         -1.3380     2.8420    -0.8370 h1         1 HY2       0.038200
     53 H17A        -1.0050     2.3280    -2.4950 h1         1 HY2       0.038200
     54 H18         -3.4460     2.4590    -2.0530 h1         1 HY2       0.040700
     55 H18A        -2.9530     0.8200    -2.4920 h1         1 HY2       0.040700
     56 H20         -3.0250    -0.4050     1.0690 h1         1 HY2       0.040700
     57 H20A        -2.7120    -0.9310    -0.5900 h1         1 HY2       0.040700
     58 H21         -0.6070    -0.5600     0.6060 h1         1 HY2       0.038200
     59 H21A        -1.0780     1.0830     1.0580 h1         1 HY2       0.038200
     60 H22         -5.4500     1.5610    -1.0640 h1         1 HY2       0.041700
     61 H2D         13.2640     1.4840     1.9960 hc         1 HY2       0.055200
     62 H2DA        11.9390     0.5370     2.6900 hc         1 HY2       0.055200
     63 H22A        -5.0300    -0.1370    -1.2910 h1         1 HY2       0.041700
     64 H23         -5.2130    -0.5030     1.1790 h1         1 HY2       0.076200
     65 H23A        -5.5440     1.2010     1.4150 h1         1 HY2       0.076200
     66 H29        -12.8270    -2.1690    -0.4140 ha         1 HY2       0.120000
     67 H28        -11.1890    -4.0290    -0.5820 ha         1 HY2       0.124500
     68 H27         -8.7710    -3.5990    -0.2840 ha         1 HY2       0.141000
     69 H31        -13.3090     0.2000    -0.0520 ha         1 HY2       0.120000
     70 H32        -12.5180     2.5080     0.4180 ha         1 HY2       0.124500
     71 H33        -10.1060     2.9690     0.7200 ha         1 HY2       0.141000
     72 H3          12.4510    -0.6490     0.5810 h1         1 HY2       0.061200
     73 H13          3.4850     1.2960     0.1250 h1         1 HY2       0.034200
     74 H3A         12.5840     0.8760    -0.3300 h1         1 HY2       0.061200
     75 H13A         3.5560     0.8700    -1.6080 h1         1 HY2       0.034200
     76 H12          5.3010    -4.9870     0.8270 h1         1 HY2       0.042033
     77 H12A         6.7280    -4.5550    -0.1370 h1         1 HY2       0.042033
     78 H12B         6.6530    -4.1310     1.5950 h1         1 HY2       0.042033
     79 H14          1.6680    -0.7340    -1.2850 hc         1 HY2       0.065200
     80 H14A         1.6130    -0.3270     0.4350 hc         1 HY2       0.065200
     81 H15          0.9940     2.0150    -0.1090 h1         1 HY2       0.029200
     82 H15A         1.2090     1.6870    -1.8310 h1         1 HY2       0.029200
     83 H11A         8.5600     3.1770     0.7740 h1         1 HY2       0.058200
@<TRIPOS>BOND
     1     1    19 1   
     2     1    31 1   
     3     1    49 1   
     4     1    51 1   
     5     2     6 1   
     6     2    10 1   
     7     3     4 1   
     8     3    31 1   
     9     3    72 1   
    10     3    74 1   
    11     4    19 1   
    12     4    41 1   
    13     5    41 2   
    14     6    42 ar  
    15     6    43 ar  
    16     7    43 ar  
    17     7    44 ar  
    18     7    46 1   
    19     8     9 1   
    20     8    44 1   
    21     8    47 1   
    22     9    19 1   
    23     9    48 1   
    24     9    83 1   
    25    10    76 1   
    26    10    77 1   
    27    10    78 1   
    28    11    12 1   
    29    11    13 1   
    30    11    73 1   
    31    11    75 1   
    32    12    43 1   
    33    13    14 1   
    34    13    79 1   
    35    13    80 1   
    36    14    15 1   
    37    14    81 1   
    38    14    82 1   
    39    15    16 1   
    40    15    21 1   
    41    16    17 1   
    42    16    52 1   
    43    16    53 1   
    44    17    18 1   
    45    17    54 1   
    46    17    55 1   
    47    18    20 1   
    48    18    22 1   
    49    19    50 1   
    50    20    21 1   
    51    20    56 1   
    52    20    57 1   
    53    21    58 1   
    54    21    59 1   
    55    22    23 1   
    56    22    60 1   
    57    22    63 1   
    58    23    24 1   
    59    23    64 1   
    60    23    65 1   
    61    24    25 1   
    62    24    38 1   
    63    25    26 2   
    64    25    27 1   
    65    27    28 ar  
    66    27    36 ar  
    67    28    29 ar  
    68    28    68 1   
    69    29    30 ar  
    70    29    67 1   
    71    30    32 ar  
    72    30    66 1   
    73    31    61 1   
    74    31    62 1   
    75    32    33 ar  
    76    32    36 ar  
    77    33    34 ar  
    78    33    69 1   
    79    34    35 ar  
    80    34    70 1   
    81    35    37 ar  
    82    35    71 1   
    83    36    37 ar  
    84    37    38 1   
    85    38    39 2   
    86    40    41 1   
    87    40    42 ar  
    88    40    44 ar  
    89    42    45 1   
@<TRIPOS>SUBSTRUCTURE
     1 HY2         1 TEMP              0 ****  ****    0 ROOT
