@<TRIPOS>MOLECULE
HY2
   83    89     1     0     0
SMALL
abcg2


@<TRIPOS>ATOM
      1 C1          10.4020     2.0680     2.2760 c5         1 HY2      -0.086400
      2 O2           5.3880    -2.9490    -0.2640 os         1 HY2      -0.321100
      3 C3          11.5770     0.5320     0.8810 c5         1 HY2       0.095000
      4 N4          10.1630     0.5020     0.5220 n          1 HY2      -0.412800
      5 O5          10.3170    -1.3930    -0.7000 o          1 HY2      -0.561000
      6 C7           6.1110    -1.8170    -0.3510 ca         1 HY2       0.098100
      7 C9           6.0310     0.5760    -0.6680 ca         1 HY2      -0.165000
      8 N10          8.0550     1.9050    -0.7410 nu         1 HY2      -0.886200
      9 C11          8.6120     2.4520     0.4870 c3         1 HY2       0.159800
     10 C12          6.0800    -4.1660    -0.0740 c3         1 HY2       0.143900
     11 C13          3.2280     0.3590    -0.8250 c3         1 HY2       0.159600
     12 O13          4.0360    -0.7880    -0.6110 os         1 HY2      -0.323100
     13 C14          1.7790    -0.0790    -0.8290 c3         1 HY2      -0.083400
     14 C15          0.8640     1.1200    -1.0430 c3         1 HY2       0.170800
     15 N16         -0.5330     0.7570    -1.1810 n3         1 HY2      -0.717600
     16 C17         -1.3160     1.8790    -1.6640 c6         1 HY2       0.163800
     17 C18         -2.7650     1.4810    -1.8710 c6         1 HY2       0.167800
     18 N19         -3.3330     0.9910    -0.6310 n3         1 HY2      -0.727600
     19 C1A          9.3710     1.4270     1.3400 c5         1 HY2       0.072700
     20 C20         -2.5590    -0.1390    -0.1520 c6         1 HY2       0.167800
     21 C21         -1.1080     0.2500     0.0510 c6         1 HY2       0.163800
     22 C22         -4.7460     0.6940    -0.7370 c3         1 HY2       0.156800
     23 C23         -5.4220     0.7920     0.6280 c3         1 HY2       0.089000
     24 N24         -6.8350     0.4200     0.5610 n          1 HY2      -0.374400
     25 C25         -7.1460    -0.9260     0.6990 c          1 HY2       0.590600
     26 O25         -6.2680    -1.7450     0.8790 o          1 HY2      -0.522500
     27 C26         -8.5670    -1.3020     0.6200 ca         1 HY2      -0.164600
     28 C27         -8.9380    -2.6190     0.7640 ca         1 HY2      -0.017000
     29 C28        -10.2900    -2.9890     0.6940 ca         1 HY2      -0.131000
     30 C29        -11.2570    -2.0410     0.4820 ca         1 HY2      -0.056000
     31 C2D         11.5580     1.0740     2.3030 c5         1 HY2      -0.098400
     32 C30        -10.9100    -0.6810     0.3280 ca         1 HY2      -0.062000
     33 C31        -11.8750     0.3260     0.1060 ca         1 HY2      -0.056000
     34 C32        -11.4960     1.6340    -0.0440 ca         1 HY2      -0.131000
     35 C33        -10.1400     1.9920     0.0190 ca         1 HY2      -0.017000
     36 C34         -9.5460    -0.3150     0.3970 ca         1 HY2       0.021000
     37 C35         -9.1760     1.0350     0.2360 ca         1 HY2      -0.164600
     38 C36         -7.7560     1.4230     0.2940 c          1 HY2       0.590600
     39 O36         -7.3920     2.5680     0.1220 o          1 HY2      -0.522500
     40 C5A          8.1480    -0.5140    -0.3410 ca         1 HY2      -0.180600
     41 C5D          9.6340    -0.5050    -0.2010 c          1 HY2       0.576600
     42 C6D          7.4880    -1.7460    -0.2650 ca         1 HY2      -0.120000
     43 C8D          5.3670    -0.6330    -0.5450 ca         1 HY2       0.139100
     44 C9A          7.4200     0.6450    -0.5720 ca         1 HY2       0.247000
     45 H6D          8.0760    -2.6410    -0.1170 ha         1 HY2       0.137000
     46 H9           5.4930     1.4960    -0.8540 ha         1 HY2       0.135000
     47 HN10         8.8040     1.8140    -1.4160 hn         1 HY2       0.432000
     48 H11          9.2740     3.2710     0.2010 h1         1 HY2       0.058200
     49 H1          10.7410     3.0210     1.8630 hc         1 HY2       0.053700
     50 H1A          8.6510     0.8470     1.9250 h1         1 HY2       0.061700
     51 H1B          9.9840     2.2690     3.2610 hc         1 HY2       0.053700
     52 H17         -1.2790     2.7340    -0.9670 h1         1 HY2       0.038200
     53 H17A        -0.9010     2.2190    -2.6160 h1         1 HY2       0.038200
     54 H18         -3.3280     2.3560    -2.2030 h1         1 HY2       0.040700
     55 H18A        -2.8250     0.7290    -2.6770 h1         1 HY2       0.040700
     56 H20         -2.9590    -0.4900     0.8010 h1         1 HY2       0.040700
     57 H20A        -2.6110    -0.9880    -0.8560 h1         1 HY2       0.040700
     58 H21         -0.5590    -0.6350     0.3790 h1         1 HY2       0.038200
     59 H21A        -1.0400     0.9940     0.8650 h1         1 HY2       0.038200
     60 H22         -5.2070     1.4250    -1.4050 h1         1 HY2       0.041700
     61 H2D         12.5050     1.5320     2.5860 hc         1 HY2       0.055200
     62 H2DA        11.3550     0.2650     3.0080 hc         1 HY2       0.055200
     63 H22A        -4.9310    -0.2980    -1.1790 h1         1 HY2       0.041700
     64 H23         -4.9420     0.1430     1.3560 h1         1 HY2       0.076200
     65 H23A        -5.3480     1.8090     1.0030 h1         1 HY2       0.076200
     66 H29        -12.3010    -2.3270     0.4290 ha         1 HY2       0.120000
     67 H28        -10.5630    -4.0290     0.8100 ha         1 HY2       0.124500
     68 H27         -8.1850    -3.3780     0.9320 ha         1 HY2       0.141000
     69 H31        -12.9210     0.0510     0.0550 ha         1 HY2       0.120000
     70 H32        -12.2410     2.4000    -0.2120 ha         1 HY2       0.124500
     71 H33         -9.8560     3.0280    -0.1050 ha         1 HY2       0.141000
     72 H3          12.0150    -0.4610     0.8030 h1         1 HY2       0.061200
     73 H13          3.4020     1.0990    -0.0340 h1         1 HY2       0.034200
     74 H3A         12.1300     1.1970     0.2110 h1         1 HY2       0.061200
     75 H13A         3.4900     0.8300    -1.7800 h1         1 HY2       0.034200
     76 H12          5.3260    -4.9480    -0.0340 h1         1 HY2       0.042033
     77 H12A         6.7660    -4.3790    -0.8980 h1         1 HY2       0.042033
     78 H12B         6.6440    -4.1710     0.8630 h1         1 HY2       0.042033
     79 H14          1.6130    -0.8060    -1.6270 hc         1 HY2       0.065200
     80 H14A         1.5570    -0.5730     0.1200 hc         1 HY2       0.065200
     81 H15          1.0130     1.8500    -0.2290 h1         1 HY2       0.029200
     82 H15A         1.1650     1.6230    -1.9670 h1         1 HY2       0.029200
     83 H11A         7.8140     2.8830     1.0980 h1         1 HY2       0.058200
@<TRIPOS>BOND
     1     1    19 1   
     2     1    31 1   
     3     1    49 1   
     4     1    51 1   
     5     2     6 1   
     6     2    10 1   
     7     3     4 1   
     8     3    31 1   
     9     3    72 1   
    10     3    74 1   
    11     4    19 1   
    12     4    41 1   
    13     5    41 2   
    14     6    42 ar  
    15     6    43 ar  
    16     7    43 ar  
    17     7    44 ar  
    18     7    46 1   
    19     8     9 1   
    20     8    44 1   
    21     8    47 1   
    22     9    19 1   
    23     9    48 1   
    24     9    83 1   
    25    10    76 1   
    26    10    77 1   
    27    10    78 1   
    28    11    12 1   
    29    11    13 1   
    30    11    73 1   
    31    11    75 1   
    32    12    43 1   
    33    13    14 1   
    34    13    79 1   
    35    13    80 1   
    36    14    15 1   
    37    14    81 1   
    38    14    82 1   
    39    15    16 1   
    40    15    21 1   
    41    16    17 1   
    42    16    52 1   
    43    16    53 1   
    44    17    18 1   
    45    17    54 1   
    46    17    55 1   
    47    18    20 1   
    48    18    22 1   
    49    19    50 1   
    50    20    21 1   
    51    20    56 1   
    52    20    57 1   
    53    21    58 1   
    54    21    59 1   
    55    22    23 1   
    56    22    60 1   
    57    22    63 1   
    58    23    24 1   
    59    23    64 1   
    60    23    65 1   
    61    24    25 1   
    62    24    38 1   
    63    25    26 2   
    64    25    27 1   
    65    27    28 ar  
    66    27    36 ar  
    67    28    29 ar  
    68    28    68 1   
    69    29    30 ar  
    70    29    67 1   
    71    30    32 ar  
    72    30    66 1   
    73    31    61 1   
    74    31    62 1   
    75    32    33 ar  
    76    32    36 ar  
    77    33    34 ar  
    78    33    69 1   
    79    34    35 ar  
    80    34    70 1   
    81    35    37 ar  
    82    35    71 1   
    83    36    37 ar  
    84    37    38 1   
    85    38    39 2   
    86    40    41 1   
    87    40    42 ar  
    88    40    44 ar  
    89    42    45 1   
@<TRIPOS>SUBSTRUCTURE
     1 HY2         1 TEMP              0 ****  ****    0 ROOT
