@<TRIPOS>MOLECULE
HY3
   17    17     1     0     0
SMALL
abcg2


@<TRIPOS>ATOM
      1 C1          -1.5830    -0.2340    -0.0310 c          1 HY3       0.730000
      2 O1          -2.1310    -1.3510    -0.0930 o          1 HY3      -0.727000
      3 N1           0.5880    -1.4630     0.2200 n7         1 HY3      -0.842400
      4 C2          -0.1060    -0.1970     0.3900 c5         1 HY3       0.036500
      5 C3           0.7740     0.8180    -0.3650 c5         1 HY3       0.176300
      6 C4           2.0960     0.0600    -0.6040 c5         1 HY3      -0.120400
      7 C5           1.9980    -1.1430     0.3270 c5         1 HY3       0.153800
      8 O2           0.9250     1.9710     0.4380 oh         1 HY3      -0.653000
      9 OXT         -2.1220     0.8740    -0.2340 o          1 HY3      -0.727000
     10 H            0.2860    -2.1480     0.8980 hn         1 HY3       0.416000
     11 HN          -0.0920     0.1300     1.4460 h1         1 HY3       0.020700
     12 HB           0.3190     1.0870    -1.3250 h1         1 HY3       0.052700
     13 HG           2.1480    -0.2840    -1.6390 hc         1 HY3       0.029200
     14 HGA          2.9740     0.6820    -0.4210 hc         1 HY3       0.029200
     15 HD           2.3060    -0.8590     1.3460 h1         1 HY3       0.007200
     16 HDA          2.6250    -1.9810     0.0150 h1         1 HY3       0.007200
     17 HO1          1.4490     2.6080    -0.0570 ho         1 HY3       0.411000
@<TRIPOS>BOND
     1     1     2 1   
     2     1     4 1   
     3     1     9 1   
     4     3     4 1   
     5     3     7 1   
     6     3    10 1   
     7     4     5 1   
     8     4    11 1   
     9     5     6 1   
    10     5     8 1   
    11     5    12 1   
    12     6     7 1   
    13     6    13 1   
    14     6    14 1   
    15     7    15 1   
    16     7    16 1   
    17     8    17 1   
@<TRIPOS>SUBSTRUCTURE
     1 HY3         1 TEMP              0 ****  ****    0 ROOT
