@<TRIPOS>MOLECULE
HY3
   17    17     1     0     0
SMALL
No Charge or Current Charge


@<TRIPOS>ATOM
      1 C1          -1.5950    -0.2810    -0.1970 c          1 HY3       0.730000
      2 O1          -2.5610    -0.3630     0.5520 o          1 HY3      -0.727000
      3 N1           0.6800    -1.5580     0.2040 n7         1 HY3      -0.842400
      4 C2          -0.1390    -0.3040     0.4330 c5         1 HY3       0.036500
      5 C3           0.7120     0.8890    -0.1490 c5         1 HY3       0.176300
      6 C4           1.9660     0.1610    -0.7200 c5         1 HY3      -0.120400
      7 C5           2.0680    -1.0770     0.2010 c5         1 HY3       0.153800
      8 O2           1.0820     1.8290     0.8660 oh         1 HY3      -0.653000
      9 OXT         -1.7400    -0.2070    -1.4130 o          1 HY3      -0.727000
     10 H            0.5280    -2.2390     0.9600 hn         1 HY3       0.416000
     11 HN          -0.2570    -0.1630     1.5170 h1         1 HY3       0.020700
     12 HB           0.1840     1.4150    -0.9570 h1         1 HY3       0.052700
     13 HG           1.8060    -0.1380    -1.7630 hc         1 HY3       0.029200
     14 HGA          2.8710     0.7770    -0.6980 hc         1 HY3       0.029200
     15 HD           2.3870    -0.7990     1.2150 h1         1 HY3       0.007200
     16 HDA          2.7600    -1.8360    -0.1870 h1         1 HY3       0.007200
     17 HO1          1.7020     2.4630     0.4470 ho         1 HY3       0.411000
@<TRIPOS>BOND
     1     1     2 1   
     2     1     4 1   
     3     1     9 1   
     4     3     4 1   
     5     3     7 1   
     6     3    10 1   
     7     4     5 1   
     8     4    11 1   
     9     5     6 1   
    10     5     8 1   
    11     5    12 1   
    12     6     7 1   
    13     6    13 1   
    14     6    14 1   
    15     7    15 1   
    16     7    16 1   
    17     8    17 1   
@<TRIPOS>SUBSTRUCTURE
     1 HY3         1 TEMP              0 ****  ****    0 ROOT
