@<TRIPOS>MOLECULE
HY4
   50    49     1     0     0
SMALL
abcg2


@<TRIPOS>ATOM
      1 O11         -3.2980     0.2330     1.9480 o          1 HY4      -0.829500
      2 P13         -3.2590     0.6960     0.5130 p5         1 HY4       1.400400
      3 C3          -4.1350    -0.4960    -0.5550 c3         1 HY4      -0.428400
      4 C2          -5.6410    -0.4710    -0.3040 c3         1 HY4      -0.045400
      5 C1          -6.3970    -1.4760    -1.1630 c3         1 HY4      -0.081100
      6 O5          -1.7300     0.4600    -0.0890 os         1 HY4      -0.601400
      7 C6          -0.7140     1.3400     0.3350 c3         1 HY4       0.217600
      8 C7           0.6250     0.7780    -0.1040 c3         1 HY4       0.167300
      9 O50          0.8520    -0.4550     0.5420 os         1 HY4      -0.449000
     10 C33          0.9670    -1.5720    -0.3060 c3         1 HY4       0.178600
     11 C30          1.2280    -2.8070     0.5320 c3         1 HY4      -0.082400
     12 C31          1.3150    -4.0680    -0.3200 c3         1 HY4      -0.074400
     13 C32          1.5530    -5.3200     0.5120 c3         1 HY4      -0.086100
     14 C8           1.7530     1.7340     0.2380 c3         1 HY4       0.141600
     15 O9           2.9490     1.2330    -0.2990 os         1 HY4      -0.458000
     16 C26          4.0920     1.9060     0.1720 c3         1 HY4       0.166600
     17 C27          5.3310     1.3020    -0.4570 c3         1 HY4      -0.081400
     18 C28          6.6080     1.9470     0.0660 c3         1 HY4      -0.075400
     19 C29          7.8630     1.3560    -0.5600 c3         1 HY4      -0.087100
     20 H2          -3.9340    -0.2640    -1.6050 hc         1 HY4       0.043700
     21 H3          -3.7450    -1.5020    -0.3750 hc         1 HY4       0.043700
     22 H4          -5.8380    -0.6730     0.7520 hc         1 HY4       0.041700
     23 H5          -6.0220     0.5350    -0.4990 hc         1 HY4       0.041700
     24 H6          -7.4720    -1.4250    -0.9830 hc         1 HY4       0.012367
     25 H7          -6.2310    -1.2920    -2.2260 hc         1 HY4       0.012367
     26 H8          -6.0740    -2.4970    -0.9520 hc         1 HY4       0.012367
     27 H9          -0.8500     2.3380    -0.0990 h1         1 HY4       0.027700
     28 H10         -0.7160     1.4600     1.4260 h1         1 HY4       0.027700
     29 H11          0.6030     0.6470    -1.1950 h1         1 HY4       0.048700
     30 H12          0.0480    -1.7140    -0.8900 h1         1 HY4       0.020200
     31 H13          1.7850    -1.4350    -1.0270 h1         1 HY4       0.020200
     32 H14          2.1590    -2.6800     1.0950 hc         1 HY4       0.050200
     33 H15          0.4260    -2.9220     1.2680 hc         1 HY4       0.050200
     34 H16          0.3900    -4.1810    -0.8940 hc         1 HY4       0.033700
     35 H17          2.1170    -3.9570    -1.0560 hc         1 HY4       0.033700
     36 H18          2.4930    -5.2550     1.0620 hc         1 HY4       0.026033
     37 H19          0.7540    -5.4650     1.2420 hc         1 HY4       0.026033
     38 H20          1.5970    -6.2130    -0.1130 hc         1 HY4       0.026033
     39 H21          1.5290     2.7330    -0.1630 h1         1 HY4       0.027200
     40 H22          1.8270     1.8380     1.3310 h1         1 HY4       0.027200
     41 H23          4.0380     2.9800    -0.0650 h1         1 HY4       0.013700
     42 H24          4.1540     1.8320     1.2680 h1         1 HY4       0.013700
     43 H25          5.3540     0.2270    -0.2510 hc         1 HY4       0.049700
     44 H26          5.2810     1.4130    -1.5450 hc         1 HY4       0.049700
     45 H27          6.5780     3.0240    -0.1230 hc         1 HY4       0.035200
     46 H28          6.6540     1.8320     1.1530 hc         1 HY4       0.035200
     47 H29          8.7640     1.8240    -0.1630 hc         1 HY4       0.028700
     48 H30          7.9340     0.2840    -0.3650 hc         1 HY4       0.028700
     49 H31          7.8670     1.4930    -1.6430 hc         1 HY4       0.028700
     50 O14         -3.6900     2.1060     0.1960 o          1 HY4      -0.829500
@<TRIPOS>BOND
     1     1     2 1   
     2     2     3 1   
     3     2     6 1   
     4     2    50 1   
     5     3     4 1   
     6     3    20 1   
     7     3    21 1   
     8     4     5 1   
     9     4    22 1   
    10     4    23 1   
    11     5    24 1   
    12     5    25 1   
    13     5    26 1   
    14     6     7 1   
    15     7     8 1   
    16     7    27 1   
    17     7    28 1   
    18     8     9 1   
    19     8    14 1   
    20     8    29 1   
    21     9    10 1   
    22    10    11 1   
    23    10    30 1   
    24    10    31 1   
    25    11    12 1   
    26    11    32 1   
    27    11    33 1   
    28    12    13 1   
    29    12    34 1   
    30    12    35 1   
    31    13    36 1   
    32    13    37 1   
    33    13    38 1   
    34    14    15 1   
    35    14    39 1   
    36    14    40 1   
    37    15    16 1   
    38    16    17 1   
    39    16    41 1   
    40    16    42 1   
    41    17    18 1   
    42    17    43 1   
    43    17    44 1   
    44    18    19 1   
    45    18    45 1   
    46    18    46 1   
    47    19    47 1   
    48    19    48 1   
    49    19    49 1   
@<TRIPOS>SUBSTRUCTURE
     1 HY4         1 TEMP              0 ****  ****    0 ROOT
