@<TRIPOS>MOLECULE
HY4
   50    49     1     0     0
SMALL
No Charge or Current Charge


@<TRIPOS>ATOM
      1 O11         -3.2470    -0.2070     1.7020 o          1 HY4      -0.829500
      2 P13         -3.0760     0.5400     0.4210 p5         1 HY4       1.400400
      3 C3          -3.8670    -0.3830    -0.9580 c3         1 HY4      -0.428400
      4 C2          -5.3940    -0.5770    -0.8170 c3         1 HY4      -0.045400
      5 C1          -6.0100    -1.3560    -1.9940 c3         1 HY4      -0.081100
      6 O5          -1.5580     0.4870    -0.1120 os         1 HY4      -0.601400
      7 C6          -0.5290     1.0830     0.6910 c3         1 HY4       0.217600
      8 C7           0.8680     0.6200     0.1790 c3         1 HY4       0.167300
      9 O50          1.1960    -0.6980     0.7030 os         1 HY4      -0.449000
     10 C33          0.3960    -1.7970     0.2280 c3         1 HY4       0.178600
     11 C30          1.0470    -3.0980     0.7340 c3         1 HY4      -0.082400
     12 C31          0.2820    -4.3640     0.2920 c3         1 HY4      -0.074400
     13 C32          0.9290    -5.6680     0.7950 c3         1 HY4      -0.086100
     14 C8           1.9830     1.5930     0.6430 c3         1 HY4       0.141600
     15 O9           3.2050     1.2820    -0.0570 os         1 HY4      -0.458000
     16 C26          4.3210     2.1110     0.3000 c3         1 HY4       0.166600
     17 C27          5.5340     1.6470    -0.5300 c3         1 HY4      -0.081400
     18 C28          6.8120     2.4640    -0.2370 c3         1 HY4      -0.075400
     19 C29          8.0270     2.0020    -1.0650 c3         1 HY4      -0.087100
     20 H2          -3.6390     0.1650    -1.8780 hc         1 HY4       0.043700
     21 H3          -3.3670    -1.3560    -1.0150 hc         1 HY4       0.043700
     22 H4          -5.6110    -1.1120     0.1160 hc         1 HY4       0.041700
     23 H5          -5.8830     0.4030    -0.7440 hc         1 HY4       0.041700
     24 H6          -7.0910    -1.4700    -1.8530 hc         1 HY4       0.012367
     25 H7          -5.8410    -0.8270    -2.9400 hc         1 HY4       0.012367
     26 H8          -5.5670    -2.3560    -2.0720 hc         1 HY4       0.012367
     27 H9          -0.5950     2.1770     0.6150 h1         1 HY4       0.027700
     28 H10         -0.6370     0.8130     1.7490 h1         1 HY4       0.027700
     29 H11          0.8570     0.6130    -0.9190 h1         1 HY4       0.048700
     30 H12         -0.6280    -1.7380     0.6170 h1         1 HY4       0.020200
     31 H13          0.3590    -1.8070    -0.8690 h1         1 HY4       0.020200
     32 H14          2.0780    -3.1490     0.3630 hc         1 HY4       0.050200
     33 H15          1.0980    -3.0700     1.8300 hc         1 HY4       0.050200
     34 H16         -0.7500    -4.3130     0.6610 hc         1 HY4       0.033700
     35 H17          0.2280    -4.3920    -0.8040 hc         1 HY4       0.033700
     36 H18          1.9520    -5.7660     0.4130 hc         1 HY4       0.026033
     37 H19          0.9650    -5.6860     1.8910 hc         1 HY4       0.026033
     38 H20          0.3520    -6.5370     0.4570 hc         1 HY4       0.026033
     39 H21          1.6770     2.6240     0.4200 h1         1 HY4       0.027200
     40 H22          2.1190     1.5060     1.7290 h1         1 HY4       0.027200
     41 H23          4.1070     3.1650     0.0800 h1         1 HY4       0.013700
     42 H24          4.5490     2.0150     1.3700 h1         1 HY4       0.013700
     43 H25          5.7260     0.5870    -0.3190 hc         1 HY4       0.049700
     44 H26          5.2900     1.7270    -1.5960 hc         1 HY4       0.049700
     45 H27          6.6200     3.5240    -0.4460 hc         1 HY4       0.035200
     46 H28          7.0560     2.3870     0.8290 hc         1 HY4       0.035200
     47 H29          8.9070     2.6110    -0.8230 hc         1 HY4       0.028700
     48 H30          8.2660     0.9540    -0.8520 hc         1 HY4       0.028700
     49 H31          7.8250     2.1010    -2.1380 hc         1 HY4       0.028700
     50 O14         -3.5970     1.9390     0.4730 o          1 HY4      -0.829500
@<TRIPOS>BOND
     1     1     2 1   
     2     2     3 1   
     3     2     6 1   
     4     2    50 1   
     5     3     4 1   
     6     3    20 1   
     7     3    21 1   
     8     4     5 1   
     9     4    22 1   
    10     4    23 1   
    11     5    24 1   
    12     5    25 1   
    13     5    26 1   
    14     6     7 1   
    15     7     8 1   
    16     7    27 1   
    17     7    28 1   
    18     8     9 1   
    19     8    14 1   
    20     8    29 1   
    21     9    10 1   
    22    10    11 1   
    23    10    30 1   
    24    10    31 1   
    25    11    12 1   
    26    11    32 1   
    27    11    33 1   
    28    12    13 1   
    29    12    34 1   
    30    12    35 1   
    31    13    36 1   
    32    13    37 1   
    33    13    38 1   
    34    14    15 1   
    35    14    39 1   
    36    14    40 1   
    37    15    16 1   
    38    16    17 1   
    39    16    41 1   
    40    16    42 1   
    41    17    18 1   
    42    17    43 1   
    43    17    44 1   
    44    18    19 1   
    45    18    45 1   
    46    18    46 1   
    47    19    47 1   
    48    19    48 1   
    49    19    49 1   
@<TRIPOS>SUBSTRUCTURE
     1 HY4         1 TEMP              0 ****  ****    0 ROOT
