@<TRIPOS>MOLECULE
HY5
  104   108     1     0     0
SMALL
abcg2


@<TRIPOS>ATOM
      1 C01          3.6300     0.2330     0.9760 c5         1 HY5      -0.033500
      2 C02          5.0030    -0.2370     1.4880 c5         1 HY5      -0.080400
      3 C03          5.9320    -0.0540     0.2960 c5         1 HY5      -0.071400
      4 C04          5.4580     1.2630    -0.3250 c5         1 HY5      -0.029500
      5 C05          6.0560     2.4890     0.3510 c3         1 HY5       0.161600
      6 C07          8.0600     3.6290     0.7320 c3         1 HY5       0.147900
      7 C08          3.9500     1.2310    -0.1140 c2         1 HY5      -0.100400
      8 C09          3.1560     1.9430    -0.9070 c2         1 HY5      -0.172200
      9 C10          1.6760     2.2080    -0.9780 c5         1 HY5       0.056400
     10 C11          1.4300     3.5300    -0.2150 c3         1 HY5      -0.089100
     11 C12          0.6030     1.1760    -0.5950 c2         1 HY5      -0.065400
     12 C13         -0.4680     1.3330    -1.3900 c2         1 HY5      -0.109400
     13 C14         -1.8340     0.7060    -1.2910 c3         1 HY5      -0.033500
     14 C15         -2.2810     0.1030    -2.6230 c3         1 HY5      -0.084100
     15 C16         -2.8030     1.7860    -0.7940 c3         1 HY5       0.106000
     16 C18         -5.2290     2.0840    -0.5930 c          1 HY5       0.629100
     17 C20         -6.5230     1.3870    -0.3610 cx         1 HY5      -0.244700
     18 C21         -7.7650     1.9700    -0.9790 cx         1 HY5      -0.099400
     19 C22         -7.5550     2.0830     0.4860 cx         1 HY5      -0.099400
     20 C23         -0.2170     2.3660    -2.4550 c5         1 HY5      -0.087200
     21 C24          1.3010     2.4810    -2.4500 c5         1 HY5       0.163300
     22 C26          0.6100     0.1440     0.5040 c3         1 HY5       0.198500
     23 C28          1.1350    -2.1910     0.7550 c6         1 HY5       0.353300
     24 C30         -0.9860    -2.9650    -0.0210 c6         1 HY5       0.166300
     25 C31         -2.3250    -3.3590     0.5640 c3         1 HY5       0.169600
     26 C33         -4.2360    -2.2900     1.5900 c3         1 HY5       0.221200
     27 C34         -4.4450    -1.0360     2.4400 c3         1 HY5      -0.098600
     28 C35         -4.4610    -3.5290     2.4620 c3         1 HY5      -0.098600
     29 C36         -5.2460    -2.2870     0.4680 c2         1 HY5      -0.253200
     30 C37         -4.9900    -2.1480    -0.8280 c2         1 HY5      -0.315000
     31 C38         -0.3510    -4.1070    -0.8130 c6         1 HY5       0.150300
     32 C40          1.0690    -3.7290    -1.2190 c6         1 HY5       0.135300
     33 C42          1.8580    -3.3220     0.0170 c6         1 HY5       0.123300
     34 C44          1.1670     0.5610     1.8860 c3         1 HY5       0.161300
     35 C46          2.7030     0.6510     2.1320 c3         1 HY5      -0.024700
     36 C47          3.1480     1.9690     2.7660 c3         1 HY5      -0.074100
     37 N17         -4.1490     1.2820    -0.6320 ns         1 HY5      -0.506900
     38 O06          7.4450     2.5180     0.1350 os         1 HY5      -0.457000
     39 O19         -5.1560     3.2990    -0.7360 o          1 HY5      -0.617100
     40 O25          1.8890     1.4860    -3.2550 oh         1 HY5      -0.642000
     41 O27          1.1700    -1.0480    -0.0400 os         1 HY5      -0.450000
     42 O29         -0.1660    -2.5910     1.0720 os         1 HY5      -0.471000
     43 O32         -2.9100    -2.1960     1.1030 os         1 HY5      -0.464000
     44 O39         -1.1650    -4.3450    -1.9340 oh         1 HY5      -0.718000
     45 O41          1.6350    -4.8510    -1.8550 oh         1 HY5      -0.673000
     46 O43          3.1620    -2.9770    -0.3770 oh         1 HY5      -0.700000
     47 O45          0.5400     1.7740     2.2470 oh         1 HY5      -0.715000
     48 H011         3.1990    -0.6250     0.4660 hc         1 HY5       0.082700
     49 H021         5.3440     0.3670     2.3320 hc         1 HY5       0.035200
     50 H022         4.9620    -1.2680     1.8460 hc         1 HY5       0.035200
     51 H032         6.9900    -0.0520     0.5620 hc         1 HY5       0.052700
     52 H031         5.7780    -0.8650    -0.4220 hc         1 HY5       0.052700
     53 H041         5.7010     1.3180    -1.3910 hc         1 HY5       0.069700
     54 H051         5.5800     3.3930    -0.0590 h1         1 HY5       0.022700
     55 H052         5.8340     2.4860     1.4290 h1         1 HY5       0.022700
     56 H073         9.1280     3.5800     0.5220 h1         1 HY5       0.025700
     57 H072         7.6730     4.5760     0.3370 h1         1 HY5       0.025700
     58 H071         7.9230     3.6410     1.8200 h1         1 HY5       0.025700
     59 H091         3.6870     2.5590    -1.6330 ha         1 HY5       0.164000
     60 H111         0.4010     3.8750    -0.3260 hc         1 HY5       0.043700
     61 H113         1.6230     3.4130     0.8450 hc         1 HY5       0.043700
     62 H112         2.0880     4.3120    -0.5980 hc         1 HY5       0.043700
     63 H141        -1.8320    -0.1020    -0.5530 hc         1 HY5       0.063700
     64 H151        -3.2530    -0.3810    -2.5360 hc         1 HY5       0.038367
     65 H152        -2.3740     0.8600    -3.4020 hc         1 HY5       0.038367
     66 H153        -1.5690    -0.6490    -2.9650 hc         1 HY5       0.038367
     67 H162        -2.4300     2.1920     0.1530 h1         1 HY5       0.050700
     68 H161        -2.8290     2.6140    -1.5040 h1         1 HY5       0.050700
     69 H201        -6.4820     0.3070    -0.2820 hc         1 HY5       0.084700
     70 H212        -7.6480     2.8600    -1.5830 hc         1 HY5       0.079950
     71 H211        -8.5030     1.2680    -1.3430 hc         1 HY5       0.079950
     72 H221        -8.1440     1.4580     1.1440 hc         1 HY5       0.079950
     73 H222        -7.2940     3.0510     0.8920 hc         1 HY5       0.079950
     74 H232        -0.6010     2.0830    -3.4380 hc         1 HY5       0.057700
     75 H231        -0.6920     3.3210    -2.2070 hc         1 HY5       0.057700
     76 H241         1.6450     3.4780    -2.7550 h1         1 HY5       0.036700
     77 H261        -0.4460    -0.0620     0.7270 h1         1 HY5       0.039700
     78 H281         1.6220    -2.0280     1.7260 h2         1 HY5       0.067700
     79 H301        -1.1280    -2.1200    -0.7110 h1         1 HY5       0.072700
     80 H312        -2.9450    -3.8090    -0.2160 h1         1 HY5       0.044200
     81 H311        -2.1620    -4.1250     1.3340 h1         1 HY5       0.044200
     82 H342        -4.2460    -0.1310     1.8660 hc         1 HY5       0.044700
     83 H341        -5.4710    -0.9820     2.8040 hc         1 HY5       0.044700
     84 H343        -3.7790    -1.0440     3.3040 hc         1 HY5       0.044700
     85 H353        -3.7250    -3.5760     3.2660 hc         1 HY5       0.044700
     86 H351        -5.4500    -3.4860     2.9200 hc         1 HY5       0.044700
     87 H352        -4.4120    -4.4580     1.8930 hc         1 HY5       0.044700
     88 H361        -6.2780    -2.4000     0.7890 ha         1 HY5       0.171000
     89 H372        -3.9850    -2.0460    -1.2180 ha         1 HY5       0.170500
     90 H371        -5.7880    -2.1420    -1.5570 ha         1 HY5       0.170500
     91 H381        -0.2970    -4.9980    -0.1660 h1         1 HY5       0.046700
     92 H401         1.0140    -2.8740    -1.9090 h1         1 HY5       0.080700
     93 H421         1.8770    -4.1770     0.7080 h1         1 HY5       0.050700
     94 H441         0.8100    -0.2150     2.5770 h1         1 HY5       0.021700
     95 H461         2.8840    -0.1160     2.8930 hc         1 HY5       0.031700
     96 H473         2.5570     2.2210     3.6450 hc         1 HY5       0.036700
     97 H472         4.1830     1.8880     3.1000 hc         1 HY5       0.036700
     98 H471         3.1000     2.8080     2.0740 hc         1 HY5       0.036700
     99 H171        -4.2780     0.3000    -0.4410 hn         1 HY5       0.321500
    100 H251         1.6290     1.6500    -4.1660 ho         1 HY5       0.435000
    101 H391        -0.7930    -5.0850    -2.4240 ho         1 HY5       0.525000
    102 H411         2.4990    -4.6030    -2.1990 ho         1 HY5       0.467000
    103 H431         3.7600    -3.1220     0.3610 ho         1 HY5       0.509000
    104 H451        -0.4120     1.6380     2.2570 ho         1 HY5       0.505000
@<TRIPOS>BOND
     1     1     2 1   
     2     1     7 1   
     3     1    35 1   
     4     1    48 1   
     5     2     3 1   
     6     2    49 1   
     7     2    50 1   
     8     3     4 1   
     9     3    51 1   
    10     3    52 1   
    11     4     5 1   
    12     4     7 1   
    13     4    53 1   
    14     5    38 1   
    15     5    54 1   
    16     5    55 1   
    17     6    38 1   
    18     6    56 1   
    19     6    57 1   
    20     6    58 1   
    21     7     8 2   
    22     8     9 1   
    23     8    59 1   
    24     9    10 1   
    25     9    11 1   
    26     9    21 1   
    27    10    60 1   
    28    10    61 1   
    29    10    62 1   
    30    11    12 2   
    31    11    22 1   
    32    12    13 1   
    33    12    20 1   
    34    13    14 1   
    35    13    15 1   
    36    13    63 1   
    37    14    64 1   
    38    14    65 1   
    39    14    66 1   
    40    15    37 1   
    41    15    67 1   
    42    15    68 1   
    43    16    17 1   
    44    16    37 1   
    45    16    39 2   
    46    17    18 1   
    47    17    19 1   
    48    17    69 1   
    49    18    19 1   
    50    18    70 1   
    51    18    71 1   
    52    19    72 1   
    53    19    73 1   
    54    20    21 1   
    55    20    74 1   
    56    20    75 1   
    57    21    40 1   
    58    21    76 1   
    59    22    34 1   
    60    22    41 1   
    61    22    77 1   
    62    23    33 1   
    63    23    41 1   
    64    23    42 1   
    65    23    78 1   
    66    24    25 1   
    67    24    31 1   
    68    24    42 1   
    69    24    79 1   
    70    25    43 1   
    71    25    80 1   
    72    25    81 1   
    73    26    27 1   
    74    26    28 1   
    75    26    29 1   
    76    26    43 1   
    77    27    82 1   
    78    27    83 1   
    79    27    84 1   
    80    28    85 1   
    81    28    86 1   
    82    28    87 1   
    83    29    30 2   
    84    29    88 1   
    85    30    89 1   
    86    30    90 1   
    87    31    32 1   
    88    31    44 1   
    89    31    91 1   
    90    32    33 1   
    91    32    45 1   
    92    32    92 1   
    93    33    46 1   
    94    33    93 1   
    95    34    35 1   
    96    34    47 1   
    97    34    94 1   
    98    35    36 1   
    99    35    95 1   
   100    36    96 1   
   101    36    97 1   
   102    36    98 1   
   103    37    99 1   
   104    40   100 1   
   105    44   101 1   
   106    45   102 1   
   107    46   103 1   
   108    47   104 1   
@<TRIPOS>SUBSTRUCTURE
     1 HY5         1 TEMP              0 ****  ****    0 ROOT
