@<TRIPOS>MOLECULE
HY5
  104   108     1     0     0
SMALL
No Charge or Current Charge


@<TRIPOS>ATOM
      1 C01          3.7150     0.5550     0.0110 c5         1 HY5      -0.033500
      2 C02          5.0720     0.0460    -0.5950 c5         1 HY5      -0.080400
      3 C03          5.7280     1.3470    -1.1340 c5         1 HY5      -0.071400
      4 C04          5.3730     2.3730    -0.0220 c5         1 HY5      -0.029500
      5 C05          6.2660     2.3240     1.2440 c3         1 HY5       0.161600
      6 C07          8.5120     2.8290     1.9780 c3         1 HY5       0.147900
      7 C08          3.9090     2.0420     0.2350 c2         1 HY5      -0.100400
      8 C09          2.9710     3.0110     0.2460 c2         1 HY5      -0.172200
      9 C10          1.4350     2.9000    -0.1070 c5         1 HY5       0.056400
     10 C11          0.6760     3.8250     0.8970 c3         1 HY5      -0.089100
     11 C12          0.6570     1.5450    -0.2230 c2         1 HY5      -0.065400
     12 C13         -0.3070     1.6960    -1.1650 c2         1 HY5      -0.109400
     13 C14         -1.5010     0.7890    -1.4180 c3         1 HY5      -0.033500
     14 C15         -1.3030    -0.0290    -2.7150 c3         1 HY5      -0.084100
     15 C16         -2.8450     1.5530    -1.3900 c3         1 HY5       0.106000
     16 C18         -4.8340     0.3660    -2.3810 c          1 HY5       0.629100
     17 C20         -5.9060    -0.6390    -2.0390 cx         1 HY5      -0.244700
     18 C21         -7.2490    -0.5640    -2.7400 cx         1 HY5      -0.099400
     19 C22         -7.1310    -0.1450    -1.2940 cx         1 HY5      -0.099400
     20 C23         -0.2010     3.0040    -1.9240 c5         1 HY5      -0.087200
     21 C24          1.2250     3.4890    -1.5930 c5         1 HY5       0.163300
     22 C26          0.6870     0.3240     0.7460 c3         1 HY5       0.198500
     23 C28          0.5050    -2.1830     0.5950 c6         1 HY5       0.353300
     24 C30         -1.8380    -2.6630    -0.0340 c6         1 HY5       0.166300
     25 C31         -3.2520    -2.7150     0.6180 c3         1 HY5       0.169600
     26 C33         -4.1790    -1.0000     2.1610 c3         1 HY5       0.221200
     27 C34         -4.7750     0.4160     2.0260 c3         1 HY5      -0.098600
     28 C35         -2.9440    -0.9800     3.0960 c3         1 HY5      -0.098600
     29 C36         -5.2450    -1.9800     2.6380 c2         1 HY5      -0.253200
     30 C37         -6.2270    -2.5200     1.8930 c2         1 HY5      -0.315000
     31 C38         -1.4360    -3.9800    -0.7520 c6         1 HY5       0.150300
     32 C40         -0.0280    -3.7700    -1.3690 c6         1 HY5       0.135300
     33 C42          0.9900    -3.4250    -0.2520 c6         1 HY5       0.123300
     34 C44          1.8290     0.2290     1.8290 c3         1 HY5       0.161300
     35 C46          3.2310    -0.2110     1.2900 c3         1 HY5      -0.024700
     36 C47          4.2460    -0.2770     2.4690 c3         1 HY5      -0.074100
     37 N17         -3.9930     0.6440    -1.3350 ns         1 HY5      -0.506900
     38 O06          7.5690     2.8220     0.8930 os         1 HY5      -0.457000
     39 O19         -4.7290     0.8840    -3.4830 o          1 HY5      -0.617100
     40 O25          2.1670     2.9690    -2.5390 oh         1 HY5      -0.642000
     41 O27          0.7030    -0.9000    -0.0640 os         1 HY5      -0.450000
     42 O29         -0.8720    -2.3430     1.0110 os         1 HY5      -0.471000
     43 O32         -3.7470    -1.3650     0.8310 os         1 HY5      -0.464000
     44 O39         -2.3550    -4.3430    -1.7990 oh         1 HY5      -0.718000
     45 O41          0.3930    -4.9500    -2.0800 oh         1 HY5      -0.673000
     46 O43          2.3120    -3.2670    -0.8280 oh         1 HY5      -0.700000
     47 O45          1.9160     1.3990     2.6640 oh         1 HY5      -0.715000
     48 H011         2.9480     0.4130    -0.7570 hc         1 HY5       0.082700
     49 H021         5.7280    -0.4280     0.1390 hc         1 HY5       0.035200
     50 H022         4.9140    -0.6930    -1.3880 hc         1 HY5       0.035200
     51 H032         6.8070     1.2430    -1.2940 hc         1 HY5       0.052700
     52 H031         5.2830     1.6410    -2.0930 hc         1 HY5       0.052700
     53 H041         5.4710     3.3930    -0.4110 hc         1 HY5       0.069700
     54 H051         5.8140     2.9470     2.0270 h1         1 HY5       0.022700
     55 H052         6.3400     1.2960     1.6160 h1         1 HY5       0.022700
     56 H073         9.4790     3.2210     1.6390 h1         1 HY5       0.025700
     57 H072         8.1550     3.4630     2.8000 h1         1 HY5       0.025700
     58 H071         8.6690     1.8140     2.3630 h1         1 HY5       0.025700
     59 H091         3.3480     4.0310     0.3070 ha         1 HY5       0.164000
     60 H111        -0.4090     3.8060     0.7430 hc         1 HY5       0.043700
     61 H113         0.8530     3.5450     1.9380 hc         1 HY5       0.043700
     62 H112         1.0010     4.8670     0.7920 hc         1 HY5       0.043700
     63 H141        -1.5710     0.1000    -0.5790 hc         1 HY5       0.063700
     64 H151        -2.1030    -0.7660    -2.8490 hc         1 HY5       0.038367
     65 H152        -1.2960     0.6300    -3.5910 hc         1 HY5       0.038367
     66 H153        -0.3480    -0.5670    -2.6870 hc         1 HY5       0.038367
     67 H162        -2.8770     2.1880    -0.4950 h1         1 HY5       0.050700
     68 H161        -2.9250     2.2080    -2.2680 h1         1 HY5       0.050700
     69 H201        -5.5400    -1.6300    -1.7850 hc         1 HY5       0.084700
     70 H212        -7.4060     0.2180    -3.4800 hc         1 HY5       0.079950
     71 H211        -7.7610    -1.4990    -2.9550 hc         1 HY5       0.079950
     72 H221        -7.5750    -0.7940    -0.5450 hc         1 HY5       0.079950
     73 H222        -7.1990     0.9180    -1.0690 hc         1 HY5       0.079950
     74 H232        -0.3470     2.8680    -3.0010 hc         1 HY5       0.057700
     75 H231        -0.9600     3.7200    -1.5880 hc         1 HY5       0.057700
     76 H241         1.2790     4.5870    -1.5990 h1         1 HY5       0.036700
     77 H261        -0.2560     0.3590     1.3070 h1         1 HY5       0.039700
     78 H281         1.1220    -2.2100     1.5020 h2         1 HY5       0.067700
     79 H301        -1.8490    -1.8790    -0.7930 h1         1 HY5       0.072700
     80 H312        -3.9380    -3.2440    -0.0550 h1         1 HY5       0.044200
     81 H311        -3.1950    -3.2970     1.5460 h1         1 HY5       0.044200
     82 H342        -5.6150     0.4190     1.3210 hc         1 HY5       0.044700
     83 H341        -5.1460     0.7710     2.9950 hc         1 HY5       0.044700
     84 H343        -4.0200     1.1260     1.6690 hc         1 HY5       0.044700
     85 H353        -2.1430    -0.3660     2.6690 hc         1 HY5       0.044700
     86 H351        -3.2090    -0.5570     4.0720 hc         1 HY5       0.044700
     87 H352        -2.5520    -1.9880     3.2700 hc         1 HY5       0.044700
     88 H361        -5.1750    -2.2280     3.6990 ha         1 HY5       0.171000
     89 H372        -6.3300    -2.2950     0.8310 ha         1 HY5       0.170500
     90 H371        -6.9560    -3.2110     2.3200 ha         1 HY5       0.170500
     91 H381        -1.3840    -4.7870    -0.0050 h1         1 HY5       0.046700
     92 H401        -0.0730    -2.9130    -2.0580 h1         1 HY5       0.080700
     93 H421         1.0070    -4.2800     0.4410 h1         1 HY5       0.050700
     94 H441         1.5230    -0.5760     2.5080 h1         1 HY5       0.021700
     95 H461         3.1210    -1.2530     0.9770 hc         1 HY5       0.031700
     96 H473         3.8140    -0.8310     3.3110 hc         1 HY5       0.036700
     97 H472         5.1690    -0.7960     2.1930 hc         1 HY5       0.036700
     98 H471         4.5030     0.7250     2.8300 hc         1 HY5       0.036700
     99 H171        -4.1380     0.1000    -0.4890 hn         1 HY5       0.321500
    100 H251         1.9120     3.3240    -3.4160 ho         1 HY5       0.435000
    101 H391        -1.8280    -4.9330    -2.3920 ho         1 HY5       0.525000
    102 H411         1.3730    -4.8580    -2.1520 ho         1 HY5       0.467000
    103 H431         2.9570    -3.2100    -0.0870 ho         1 HY5       0.509000
    104 H451         1.1170     1.4140     3.2360 ho         1 HY5       0.505000
@<TRIPOS>BOND
     1     1     2 1   
     2     1     7 1   
     3     1    35 1   
     4     1    48 1   
     5     2     3 1   
     6     2    49 1   
     7     2    50 1   
     8     3     4 1   
     9     3    51 1   
    10     3    52 1   
    11     4     5 1   
    12     4     7 1   
    13     4    53 1   
    14     5    38 1   
    15     5    54 1   
    16     5    55 1   
    17     6    38 1   
    18     6    56 1   
    19     6    57 1   
    20     6    58 1   
    21     7     8 2   
    22     8     9 1   
    23     8    59 1   
    24     9    10 1   
    25     9    11 1   
    26     9    21 1   
    27    10    60 1   
    28    10    61 1   
    29    10    62 1   
    30    11    12 2   
    31    11    22 1   
    32    12    13 1   
    33    12    20 1   
    34    13    14 1   
    35    13    15 1   
    36    13    63 1   
    37    14    64 1   
    38    14    65 1   
    39    14    66 1   
    40    15    37 1   
    41    15    67 1   
    42    15    68 1   
    43    16    17 1   
    44    16    37 1   
    45    16    39 2   
    46    17    18 1   
    47    17    19 1   
    48    17    69 1   
    49    18    19 1   
    50    18    70 1   
    51    18    71 1   
    52    19    72 1   
    53    19    73 1   
    54    20    21 1   
    55    20    74 1   
    56    20    75 1   
    57    21    40 1   
    58    21    76 1   
    59    22    34 1   
    60    22    41 1   
    61    22    77 1   
    62    23    33 1   
    63    23    41 1   
    64    23    42 1   
    65    23    78 1   
    66    24    25 1   
    67    24    31 1   
    68    24    42 1   
    69    24    79 1   
    70    25    43 1   
    71    25    80 1   
    72    25    81 1   
    73    26    27 1   
    74    26    28 1   
    75    26    29 1   
    76    26    43 1   
    77    27    82 1   
    78    27    83 1   
    79    27    84 1   
    80    28    85 1   
    81    28    86 1   
    82    28    87 1   
    83    29    30 2   
    84    29    88 1   
    85    30    89 1   
    86    30    90 1   
    87    31    32 1   
    88    31    44 1   
    89    31    91 1   
    90    32    33 1   
    91    32    45 1   
    92    32    92 1   
    93    33    46 1   
    94    33    93 1   
    95    34    35 1   
    96    34    47 1   
    97    34    94 1   
    98    35    36 1   
    99    35    95 1   
   100    36    96 1   
   101    36    97 1   
   102    36    98 1   
   103    37    99 1   
   104    40   100 1   
   105    44   101 1   
   106    45   102 1   
   107    46   103 1   
   108    47   104 1   
@<TRIPOS>SUBSTRUCTURE
     1 HY5         1 TEMP              0 ****  ****    0 ROOT
