@<TRIPOS>MOLECULE
HY6
   32    32     1     0     0
SMALL
No Charge or Current Charge


@<TRIPOS>ATOM
      1 C5          47.5680   -14.7290    -4.4460 c          1 HY6       0.590100
      2 C11         46.2590   -13.6920     2.1870 ca         1 HY6      -0.115500
      3 N1          46.5000   -14.6420    -2.1690 ns         1 HY6      -0.501900
      4 N2          48.3680   -15.4280    -5.3450 ns         1 HY6      -0.380400
      5 C3          47.3640   -15.4280    -3.0800 c3         1 HY6       0.018000
      6 C1          45.2670   -14.0450    -0.1280 c3         1 HY6      -0.120100
      7 O1          46.5650   -16.0700    -0.4020 o          1 HY6      -0.598100
      8 S1          48.5730   -10.7670     3.8840 sy         1 HY6       1.124600
      9 C2          46.1630   -15.0230    -0.8910 c          1 HY6       0.604100
     10 O2          47.0570   -13.6480    -4.7250 o          1 HY6      -0.571100
     11 O3          48.8590   -14.7970    -6.5540 oh         1 HY6      -0.422100
     12 O5          48.5930    -9.3560     3.4990 o          1 HY6      -0.545000
     13 N7          50.0890   -11.3100     3.5910 n8         1 HY6      -1.002100
     14 O7          48.3020   -11.2160     5.2480 o          1 HY6      -0.545000
     15 C21         46.0850   -13.2320     0.8680 ca         1 HY6      -0.019300
     16 C31         46.6780   -12.0160     0.4780 ca         1 HY6      -0.115500
     17 C41         47.4350   -11.2650     1.3940 ca         1 HY6      -0.008500
     18 C51         47.6060   -11.7280     2.7150 ca         1 HY6      -0.267500
     19 C61         47.0150   -12.9460     3.1090 ca         1 HY6      -0.008500
     20 H1          45.8100   -14.6310     2.5010 ha         1 HY6       0.120500
     21 H2          48.8830   -16.2470    -5.0230 hn         1 HY6       0.338500
     22 H3          46.9110   -16.4110    -3.2600 h1         1 HY6       0.070700
     23 H4          44.7790   -13.3620    -0.8330 hc         1 HY6       0.072200
     24 H5          44.5010   -14.6180     0.4060 hc         1 HY6       0.072200
     25 H6          48.6350   -15.4470    -7.2630 ho         1 HY6       0.451000
     26 H7          50.3930   -11.5500     4.5320 hn         1 HY6       0.473000
     27 H8          49.9160   -12.2120     3.1540 hn         1 HY6       0.473000
     28 H9          46.5540   -11.6490    -0.5380 ha         1 HY6       0.120500
     29 H10         47.8860   -10.3280     1.0720 ha         1 HY6       0.137500
     30 H11         47.1350   -13.3210     4.1250 ha         1 HY6       0.137500
     31 H12         46.1310   -13.7560    -2.5000 hn         1 HY6       0.343500
     32 H13         48.3490   -15.5740    -2.6180 h1         1 HY6       0.070700
@<TRIPOS>BOND
     1     1     4 1   
     2     1     5 1   
     3     1    10 2   
     4     2    15 ar  
     5     2    19 ar  
     6     2    20 1   
     7     3     5 1   
     8     3     9 1   
     9     3    31 1   
    10     4    11 1   
    11     4    21 1   
    12     5    22 1   
    13     5    32 1   
    14     6     9 1   
    15     6    15 1   
    16     6    23 1   
    17     6    24 1   
    18     7     9 2   
    19     8    12 2   
    20     8    13 1   
    21     8    14 2   
    22     8    18 1   
    23    11    25 1   
    24    13    26 1   
    25    13    27 1   
    26    15    16 ar  
    27    16    17 ar  
    28    16    28 1   
    29    17    18 ar  
    30    17    29 1   
    31    18    19 ar  
    32    19    30 1   
@<TRIPOS>SUBSTRUCTURE
     1 HY6         1 TEMP              0 ****  ****    0 ROOT
