@<TRIPOS>MOLECULE
HY6
   32    32     1     0     0
SMALL
bcc


@<TRIPOS>ATOM
      1 C5          47.2880   -15.1500    -4.7850 c          1 HY6       0.657100
      2 C11         46.3510   -13.6640     1.9390 ca         1 HY6      -0.133500
      3 N1          46.8080   -14.4460    -2.5280 ns         1 HY6      -0.568900
      4 N2          47.8930   -16.0660    -5.5620 ns         1 HY6      -0.447400
      5 C3          47.6770   -15.2690    -3.3210 c3         1 HY6       0.018000
      6 C1          45.8080   -13.5690    -0.5110 c3         1 HY6      -0.120100
      7 O1          47.5840   -15.1870    -0.5500 o          1 HY6      -0.598100
      8 S1          48.1660   -11.1430     4.4960 sy         1 HY6       1.266200
      9 C2          46.8290   -14.4720    -1.1890 c          1 HY6       0.671100
     10 O2          46.5000   -14.3190    -5.1920 o          1 HY6      -0.571100
     11 O3          47.8420   -15.9340    -6.9170 oh         1 HY6      -0.383100
     12 O5          47.8180    -9.7320     4.5640 o          1 HY6      -0.615800
     13 N7          49.7790   -11.1920     4.1310 n8         1 HY6      -0.891700
     14 O7          47.8150   -11.9980     5.6220 o          1 HY6      -0.615800
     15 C21         46.3660   -12.9600     0.7400 ca         1 HY6      -0.019300
     16 C31         46.9380   -11.6890     0.7110 ca         1 HY6      -0.133500
     17 C41         47.4900   -11.1320     1.8510 ca         1 HY6      -0.026500
     18 C51         47.4690   -11.8580     3.0350 ca         1 HY6      -0.267500
     19 C61         46.8990   -13.1200     3.0910 ca         1 HY6      -0.026500
     20 H1          45.8960   -14.6450     1.9810 ha         1 HY6       0.138500
     21 H2          48.6570   -16.6340    -5.2210 hn         1 HY6       0.338500
     22 H3          47.6250   -16.3130    -3.0020 h1         1 HY6       0.070700
     23 H4          45.4560   -12.7920    -1.1920 hc         1 HY6       0.072200
     24 H5          44.9420   -14.1930    -0.2700 hc         1 HY6       0.072200
     25 H6          47.1750   -16.5640    -7.2210 ho         1 HY6       0.412000
     26 H7          50.3100   -10.5510     4.7140 hn         1 HY6       0.417800
     27 H8          50.1650   -12.1290     4.1940 hn         1 HY6       0.417800
     28 H9          46.9510   -11.1270    -0.2140 ha         1 HY6       0.138500
     29 H10         47.9310   -10.1440     1.8110 ha         1 HY6       0.155500
     30 H11         46.8760   -13.6800     4.0150 ha         1 HY6       0.155500
     31 H12         46.1990   -13.8080    -3.0190 hn         1 HY6       0.343500
     32 H13         48.7240   -14.9630    -3.2140 h1         1 HY6       0.070700
@<TRIPOS>BOND
     1     1     4 1   
     2     1     5 1   
     3     1    10 2   
     4     2    15 ar  
     5     2    19 ar  
     6     2    20 1   
     7     3     5 1   
     8     3     9 1   
     9     3    31 1   
    10     4    11 1   
    11     4    21 1   
    12     5    22 1   
    13     5    32 1   
    14     6     9 1   
    15     6    15 1   
    16     6    23 1   
    17     6    24 1   
    18     7     9 2   
    19     8    12 2   
    20     8    13 1   
    21     8    14 2   
    22     8    18 1   
    23    11    25 1   
    24    13    26 1   
    25    13    27 1   
    26    15    16 ar  
    27    16    17 ar  
    28    16    28 1   
    29    17    18 ar  
    30    17    29 1   
    31    18    19 ar  
    32    19    30 1   
@<TRIPOS>SUBSTRUCTURE
     1 HY6         1 TEMP              0 ****  ****    0 ROOT
