@<TRIPOS>MOLECULE
HY7
   40    43     1     0     0
SMALL
No Charge or Current Charge


@<TRIPOS>ATOM
      1 C5          -4.4650    -1.4380    -1.2850 c6         1 HY7       0.167300
      2 C6          -4.8270    -2.8750    -0.7900 c6         1 HY7       0.164300
      3 N3          -5.1210    -2.9130     0.6750 n3         1 HY7      -0.719600
      4 C7          -5.4910    -4.2630     1.1500 c3         1 HY7       0.153100
      5 C8          -3.9810    -2.3220     1.4410 c6         1 HY7       0.164300
      6 C9          -3.6170    -0.8840     0.9490 c6         1 HY7       0.167300
      7 N2          -3.3270    -0.8410    -0.5200 n3         1 HY7      -0.702600
      8 C4          -2.9440     0.5150    -1.0280 c3         1 HY7       0.140500
      9 C3          -1.6860     1.1370    -0.4250 cc         1 HY7       0.480900
     10 N4          -0.4680     0.8660    -0.9180 nd         1 HY7      -0.557300
     11 C10          0.5690     1.5120    -0.2520 cd         1 HY7       0.162400
     12 C11          1.9650     1.4480    -0.5040 ca         1 HY7      -0.115800
     13 C12          2.7340     0.7580    -1.4480 ca         1 HY7      -0.002000
     14 C13          4.1320     0.9430    -1.3940 ca         1 HY7      -0.052900
     15 Br1          5.2560     0.0360    -2.6480 br         1 HY7      -0.090100
     16 C14          4.7110     1.7930    -0.4190 ca         1 HY7      -0.053000
     17 C15          3.8970     2.4720     0.5170 ca         1 HY7      -0.112000
     18 C16          2.5110     2.2770     0.4490 ca         1 HY7       0.093100
     19 O2           1.5640     2.8590     1.2820 os         1 HY7      -0.120200
     20 C1           0.3520     2.3510     0.8080 cc         1 HY7      -0.115100
     21 C2          -0.9710     2.6510     1.3370 c          1 HY7       0.600200
     22 O1          -1.2220     3.3910     2.2750 o          1 HY7      -0.512000
     23 N1          -1.9290     1.9880     0.6390 ns         1 HY7      -0.422400
     24 H51C        -4.2180    -1.4890    -2.3550 h1         1 HY7       0.039950
     25 H52C        -5.3570    -0.8020    -1.1910 h1         1 HY7       0.039950
     26 H61C        -5.6940    -3.2350    -1.3630 h1         1 HY7       0.042450
     27 H62C        -3.9860    -3.5450    -1.0250 h1         1 HY7       0.042450
     28 H71C        -4.6620    -4.9690     1.0110 h1         1 HY7       0.032033
     29 H72C        -5.7490    -4.2410     2.2170 h1         1 HY7       0.032033
     30 H73C        -6.3620    -4.6420     0.5990 h1         1 HY7       0.032033
     31 H81C        -4.2260    -2.2740     2.5120 h1         1 HY7       0.042450
     32 H82C        -3.0890    -2.9590     1.3430 h1         1 HY7       0.042450
     33 H91C        -4.4530    -0.2100     1.1890 h1         1 HY7       0.039950
     34 H92C        -2.7460    -0.5370     1.5240 h1         1 HY7       0.039950
     35 H41C        -2.7810     0.4570    -2.1120 h1         1 HY7       0.049700
     36 H42C        -3.7800     1.2120    -0.8850 h1         1 HY7       0.049700
     37 H1          -2.8800     2.1410     0.9420 hn         1 HY7       0.331500
     38 H12          2.2720     0.1090    -2.1880 ha         1 HY7       0.150000
     39 H14          5.7910     1.9260    -0.3890 ha         1 HY7       0.134000
     40 H15          4.3300     3.1270     1.2690 ha         1 HY7       0.141000
@<TRIPOS>BOND
     1     1     2 1   
     2     1     7 1   
     3     1    24 1   
     4     1    25 1   
     5     2     3 1   
     6     2    26 1   
     7     2    27 1   
     8     3     4 1   
     9     3     5 1   
    10     4    28 1   
    11     4    29 1   
    12     4    30 1   
    13     5     6 1   
    14     5    31 1   
    15     5    32 1   
    16     6     7 1   
    17     6    33 1   
    18     6    34 1   
    19     7     8 1   
    20     8     9 1   
    21     8    35 1   
    22     8    36 1   
    23     9    10 2   
    24     9    23 1   
    25    10    11 1   
    26    11    12 1   
    27    11    20 2   
    28    12    13 ar  
    29    12    18 ar  
    30    13    14 ar  
    31    13    38 1   
    32    14    15 1   
    33    14    16 ar  
    34    16    17 ar  
    35    16    39 1   
    36    17    18 ar  
    37    17    40 1   
    38    18    19 1   
    39    19    20 1   
    40    20    21 1   
    41    21    22 2   
    42    21    23 1   
    43    23    37 1   
@<TRIPOS>SUBSTRUCTURE
     1 HY7         1 TEMP              0 ****  ****    0 ROOT
