@<TRIPOS>MOLECULE
HY7
   40    43     1     0     0
SMALL
abcg2


@<TRIPOS>ATOM
      1 C5          -4.6430    -1.0830    -0.9180 c6         1 HY7       0.167300
      2 C6          -4.5470    -2.5960    -0.9090 c6         1 HY7       0.164300
      3 N3          -4.3990    -3.0930     0.4440 n3         1 HY7      -0.719600
      4 C7          -4.3580    -4.5370     0.4820 c3         1 HY7       0.153100
      5 C8          -3.2280    -2.5070     1.0640 c6         1 HY7       0.164300
      6 C9          -3.3190    -0.9940     1.0600 c6         1 HY7       0.167300
      7 N2          -3.4670    -0.5010    -0.2980 n3         1 HY7      -0.702600
      8 C4          -3.4760     0.9310    -0.3670 c3         1 HY7       0.140500
      9 C3          -2.1150     1.5370    -0.1490 cc         1 HY7       0.480900
     10 N4          -1.0330     0.8500    -0.3170 nd         1 HY7      -0.557300
     11 C10          0.1150     1.5400    -0.1160 cd         1 HY7       0.162400
     12 C11          1.4810     1.1020    -0.1930 ca         1 HY7      -0.115800
     13 C12          2.1060    -0.1080    -0.4800 ca         1 HY7      -0.002000
     14 C13          3.4860    -0.1240    -0.4450 ca         1 HY7      -0.052900
     15 BR1          4.3980    -1.7350    -0.8200 br         1 HY7      -0.090100
     16 C14          4.2400     1.0160    -0.1360 ca         1 HY7      -0.053000
     17 C15          3.6220     2.2200     0.1490 ca         1 HY7      -0.112000
     18 C16          2.2390     2.2350     0.1140 ca         1 HY7       0.093100
     19 O2           1.4490     3.3050     0.3640 os         1 HY7      -0.120200
     20 C1           0.1790     2.8630     0.2220 cc         1 HY7      -0.115100
     21 C2          -0.9950     3.6550     0.4060 c          1 HY7       0.600200
     22 O1          -1.0750     4.8320     0.7050 o          1 HY7      -0.512000
     23 N1          -2.1140     2.8540     0.1960 ns         1 HY7      -0.422400
     24 H51C        -4.7110    -0.7380    -1.9520 h1         1 HY7       0.039950
     25 H52C        -5.5720    -0.7760    -0.4080 h1         1 HY7       0.039950
     26 H61C        -5.4580    -3.0120    -1.3470 h1         1 HY7       0.042450
     27 H62C        -3.7050    -2.9080    -1.5520 h1         1 HY7       0.042450
     28 H71C        -3.5090    -4.9610    -0.0760 h1         1 HY7       0.032033
     29 H72C        -4.2830    -4.8820     1.5150 h1         1 HY7       0.032033
     30 H73C        -5.2750    -4.9500     0.0580 h1         1 HY7       0.032033
     31 H81C        -3.1560    -2.8550     2.0970 h1         1 HY7       0.042450
     32 H82C        -2.2990    -2.8120     0.5520 h1         1 HY7       0.042450
     33 H91C        -4.1640    -0.6760     1.6940 h1         1 HY7       0.039950
     34 H92C        -2.4090    -0.5860     1.5020 h1         1 HY7       0.039950
     35 H41C        -3.8030     1.2390    -1.3660 h1         1 HY7       0.049700
     36 H42C        -4.1880     1.3950     0.3370 h1         1 HY7       0.049700
     37 H1          -3.0090     3.3120     0.3230 hn         1 HY7       0.331500
     38 H12          1.5250    -0.9890    -0.7190 ha         1 HY7       0.150000
     39 H14          5.3200     0.9650    -0.1180 ha         1 HY7       0.134000
     40 H15          4.2020     3.1010     0.3880 ha         1 HY7       0.141000
@<TRIPOS>BOND
     1     1     2 1   
     2     1     7 1   
     3     1    24 1   
     4     1    25 1   
     5     2     3 1   
     6     2    26 1   
     7     2    27 1   
     8     3     4 1   
     9     3     5 1   
    10     4    28 1   
    11     4    29 1   
    12     4    30 1   
    13     5     6 1   
    14     5    31 1   
    15     5    32 1   
    16     6     7 1   
    17     6    33 1   
    18     6    34 1   
    19     7     8 1   
    20     8     9 1   
    21     8    35 1   
    22     8    36 1   
    23     9    10 2   
    24     9    23 1   
    25    10    11 1   
    26    11    12 1   
    27    11    20 2   
    28    12    13 ar  
    29    12    18 ar  
    30    13    14 ar  
    31    13    38 1   
    32    14    15 1   
    33    14    16 ar  
    34    16    17 ar  
    35    16    39 1   
    36    17    18 ar  
    37    17    40 1   
    38    18    19 1   
    39    19    20 1   
    40    20    21 1   
    41    21    22 2   
    42    21    23 1   
    43    23    37 1   
@<TRIPOS>SUBSTRUCTURE
     1 HY7         1 TEMP              0 ****  ****    0 ROOT
