@<TRIPOS>MOLECULE
HY8
   85    90     1     0     0
SMALL
No Charge or Current Charge


@<TRIPOS>ATOM
      1 C4           7.7360     0.3750    -0.5760 c5         1 HY8       0.295300
      2 C14         -4.3490    -1.9810    -1.4180 c3         1 HY8       0.180800
      3 C5           9.8310     2.4650     1.6540 c3         1 HY8       0.174600
      4 C6           5.3520     0.2070    -1.4060 ca         1 HY8       0.125500
      5 C11          0.5380    -0.8840    -1.8490 c3         1 HY8       0.229800
      6 C7           4.2240    -0.3940    -0.9070 ca         1 HY8      -0.088600
      7 C8           5.7610    -0.7760     0.5520 cc         1 HY8       0.442700
      8 C9           4.1740     0.8940    -3.2410 ca         1 HY8       0.178900
      9 C10          3.0330    -0.3140    -1.6580 ca         1 HY8       0.448900
     10 C12         -0.4880    -1.6630    -1.0080 c3         1 HY8      -0.103400
     11 C13         -1.8880    -1.6730    -1.6610 c3         1 HY8       0.181800
     12 N1           6.3320    -0.0290    -0.4840 na         1 HY8      -0.271300
     13 N2           4.4540    -1.0160     0.3250 nd         1 HY8      -0.554100
     14 C3           8.8840    -0.6980    -0.3560 c5         1 HY8       0.100300
     15 N3           5.3570     0.8630    -2.5820 nb         1 HY8      -0.244000
     16 C1           9.4170     1.5010     0.5040 c5         1 HY8       0.166300
     17 C15         -2.7740    -3.6130    -0.3850 c3         1 HY8       0.167800
     18 C16         -3.7740    -4.1530     0.6690 c3         1 HY8      -0.102400
     19 C17         -3.3560    -5.5050     1.3070 c3         1 HY8       0.017500
     20 C18         -4.2020    -5.7880     2.6200 c          1 HY8       0.726000
     21 C19         -4.7550    -0.5110    -1.7610 c5         1 HY8       0.171300
     22 C2           9.8350     0.0020     0.6770 c5         1 HY8       0.089300
     23 C20         -6.1980    -0.3280    -2.3380 c5         1 HY8       0.105300
     24 C21         -6.3120     1.2090    -2.1540 c5         1 HY8       0.075300
     25 C22         -5.7440     1.3460    -0.6940 c5         1 HY8       0.314300
     26 C23         -4.9440     3.0330     1.0050 ca         1 HY8       0.142500
     27 C24         -4.4870     4.3230     0.9120 ca         1 HY8      -0.099600
     28 C25         -4.9070     3.7260    -1.1130 cc         1 HY8       0.413700
     29 C26         -4.6880     3.1050     3.2770 ca         1 HY8       0.177900
     30 C27         -4.1270     4.9880     2.1030 ca         1 HY8       0.446900
     31 N10         -5.0590     2.3930     2.1860 nb         1 HY8      -0.202000
     32 N11         -4.2230     4.3790     3.2950 nb         1 HY8      -0.309000
     33 N12         -3.6610     6.2650     2.1190 nv         1 HY8      -1.072900
     34 N4           3.0070     0.3370    -2.8380 nb         1 HY8      -0.304000
     35 N5           1.8580    -0.9020    -1.2040 nu         1 HY8      -0.903100
     36 N6          -2.9920    -2.2000    -0.8090 n3         1 HY8      -0.721600
     37 N7          -3.3470    -6.5970     0.2660 n8         1 HY8      -0.993200
     38 N8          -5.2110     2.6450    -0.2770 na         1 HY8      -0.287300
     39 N9          -4.4520     4.7810    -0.4090 nd         1 HY8      -0.564100
     40 O1           7.9840     1.4140     0.3850 os         1 HY8      -0.430000
     41 O2           9.6030     3.8430     1.2930 oh         1 HY8      -0.710000
     42 O3           9.5930    -0.5240     2.0060 oh         1 HY8      -0.713000
     43 O4           8.4870    -1.9450     0.2250 oh         1 HY8      -0.699000
     44 O5          -5.3990    -6.0230     2.5070 o          1 HY8      -0.729500
     45 O6          -3.6120    -5.8300     3.6930 o          1 HY8      -0.729500
     46 O7          -4.7050     0.3440    -0.5890 os         1 HY8      -0.406000
     47 O8          -7.2240    -1.0160    -1.6050 oh         1 HY8      -0.695000
     48 O9          -7.6660     1.6760    -2.3080 oh         1 HY8      -0.692000
     49 H1           7.8550     0.7970    -1.5820 h2         1 HY8       0.087700
     50 H2          -5.1240    -2.3510    -0.7370 h1         1 HY8       0.056700
     51 H3          -4.4370    -2.5710    -2.3400 h1         1 HY8       0.056700
     52 H4           9.2640     2.2050     2.5580 h1         1 HY8       0.036200
     53 H5          10.8960     2.3080     1.8720 h1         1 HY8       0.036200
     54 H6           0.6040    -1.3370    -2.8490 h1         1 HY8       0.048200
     55 H7           0.1950     0.1530    -1.9710 h1         1 HY8       0.048200
     56 H8           6.3240    -1.0860     1.4250 h5         1 HY8       0.074800
     57 H9           4.1600     1.4210    -4.1930 h5         1 HY8       0.037100
     58 H10         -0.1280    -2.6900    -0.8820 hc         1 HY8       0.065200
     59 H11         -0.5610    -1.2080    -0.0130 hc         1 HY8       0.065200
     60 H12         -2.1020    -0.6320    -1.9320 h1         1 HY8       0.016700
     61 H13         -1.8360    -2.2430    -2.5990 h1         1 HY8       0.016700
     62 H14          9.4050    -0.8710    -1.3090 h1         1 HY8       0.077700
     63 H15          9.8260     1.8970    -0.4370 h1         1 HY8       0.059700
     64 H16         -1.7790    -3.7100     0.0660 h1         1 HY8       0.020700
     65 H17         -2.7920    -4.2700    -1.2650 h1         1 HY8       0.020700
     66 H18         -3.8600    -3.4070     1.4680 hc         1 HY8       0.057200
     67 H19         -4.7720    -4.2620     0.2290 hc         1 HY8       0.057200
     68 H20         -2.3160    -5.3870     1.6430 h1         1 HY8       0.041700
     69 H21         -4.0420    -0.1140    -2.4940 h1         1 HY8       0.037700
     70 H22         10.8890    -0.1420     0.3980 h1         1 HY8       0.053700
     71 H23         -6.2360    -0.6070    -3.4000 h1         1 HY8       0.046700
     72 H24         -5.6520     1.7150    -2.8720 h1         1 HY8       0.047700
     73 H25         -6.5410     1.1040     0.0210 h2         1 HY8       0.129700
     74 H26         -5.0300     3.6910    -2.1890 h5         1 HY8       0.065800
     75 H27         -4.7720     2.6020     4.2380 h5         1 HY8       0.043100
     76 H28         -3.3760     6.6560     1.2240 hn         1 HY8       0.502000
     77 H29         -3.1470     6.5790     2.9390 hn         1 HY8       0.502000
     78 H30          1.9540    -1.3680    -0.3010 hn         1 HY8       0.522000
     79 H32         -4.3160    -6.7930    -0.0160 hn         1 HY8       0.375500
     80 H33         -2.9020    -6.2520    -0.5910 hn         1 HY8       0.375500
     81 H35          9.8170     4.3870     2.0870 ho         1 HY8       0.505000
     82 H36         10.3210    -0.2080     2.5950 ho         1 HY8       0.518000
     83 H37          8.7870    -1.8050     1.1660 ho         1 HY8       0.525000
     84 H39         -8.0170    -0.4300    -1.6630 ho         1 HY8       0.517000
     85 H40         -7.8090     1.8740    -3.2650 ho         1 HY8       0.507000
@<TRIPOS>BOND
     1     1    12 1   
     2     1    14 1   
     3     1    40 1   
     4     1    49 1   
     5     2    21 1   
     6     2    36 1   
     7     2    50 1   
     8     2    51 1   
     9     3    16 1   
    10     3    41 1   
    11     3    52 1   
    12     3    53 1   
    13     4     6 ar  
    14     4    12 1   
    15     4    15 ar  
    16     5    10 1   
    17     5    35 1   
    18     5    54 1   
    19     5    55 1   
    20     6     9 ar  
    21     6    13 1   
    22     7    12 1   
    23     7    13 2   
    24     7    56 1   
    25     8    15 ar  
    26     8    34 ar  
    27     8    57 1   
    28     9    34 ar  
    29     9    35 1   
    30    10    11 1   
    31    10    58 1   
    32    10    59 1   
    33    11    36 1   
    34    11    60 1   
    35    11    61 1   
    36    14    22 1   
    37    14    43 1   
    38    14    62 1   
    39    16    22 1   
    40    16    40 1   
    41    16    63 1   
    42    17    18 1   
    43    17    36 1   
    44    17    64 1   
    45    17    65 1   
    46    18    19 1   
    47    18    66 1   
    48    18    67 1   
    49    19    20 1   
    50    19    37 1   
    51    19    68 1   
    52    20    44 1   
    53    20    45 1   
    54    21    23 1   
    55    21    46 1   
    56    21    69 1   
    57    22    42 1   
    58    22    70 1   
    59    23    24 1   
    60    23    47 1   
    61    23    71 1   
    62    24    25 1   
    63    24    48 1   
    64    24    72 1   
    65    25    38 1   
    66    25    46 1   
    67    25    73 1   
    68    26    27 ar  
    69    26    31 ar  
    70    26    38 1   
    71    27    30 ar  
    72    27    39 1   
    73    28    38 1   
    74    28    39 2   
    75    28    74 1   
    76    29    31 ar  
    77    29    32 ar  
    78    29    75 1   
    79    30    32 ar  
    80    30    33 1   
    81    33    76 1   
    82    33    77 1   
    83    35    78 1   
    84    37    79 1   
    85    37    80 1   
    86    41    81 1   
    87    42    82 1   
    88    43    83 1   
    89    47    84 1   
    90    48    85 1   
@<TRIPOS>SUBSTRUCTURE
     1 HY8         1 TEMP              0 ****  ****    0 ROOT
