@<TRIPOS>MOLECULE
HY8
   85    90     1     0     0
SMALL
abcg2


@<TRIPOS>ATOM
      1 C4           7.7290     0.5060    -0.6860 c5         1 HY8       0.295300
      2 C14         -4.0220    -1.8670    -1.8130 c3         1 HY8       0.180800
      3 C5           9.8220     2.5100     1.4120 c3         1 HY8       0.174600
      4 C6           5.4690    -0.1540    -1.5140 ca         1 HY8       0.125500
      5 C11          0.8480    -1.4590    -2.0060 c3         1 HY8       0.229800
      6 C7           4.2850    -0.4610    -0.8670 ca         1 HY8      -0.088600
      7 C8           5.6660     0.0170     0.6590 cc         1 HY8       0.442700
      8 C9           4.5900    -0.5070    -3.4960 ca         1 HY8       0.178900
      9 C10          3.1960    -0.8120    -1.6900 ca         1 HY8       0.448900
     10 C12         -0.3730    -1.6590    -1.1260 c3         1 HY8      -0.103400
     11 C13         -1.6160    -1.9480    -1.9570 c3         1 HY8       0.181800
     12 N1           6.3520     0.1510    -0.5180 na         1 HY8      -0.271300
     13 N2           4.4270    -0.3420     0.4910 nd         1 HY8      -0.554100
     14 C3           8.7250    -0.5840    -0.2640 c5         1 HY8       0.100300
     15 N3           5.6780    -0.1630    -2.8300 nb         1 HY8      -0.244000
     16 C1           9.4210     1.7090     0.1960 c5         1 HY8       0.166300
     17 C15         -2.8000    -3.5570    -0.6080 c3         1 HY8       0.167800
     18 C16         -3.6250    -3.7010     0.6630 c3         1 HY8      -0.102400
     19 C17         -3.5760    -5.1200     1.2550 c3         1 HY8       0.017500
     20 C18         -4.2320    -5.0830     2.6530 c          1 HY8       0.726000
     21 C19         -4.3020    -0.3800    -1.7940 c5         1 HY8       0.171300
     22 C2           9.9630     0.2640     0.1500 c5         1 HY8       0.089300
     23 C20         -5.5270     0.0660    -2.5750 c5         1 HY8       0.105300
     24 C21         -5.7940     1.4090    -1.8980 c5         1 HY8       0.075300
     25 C22         -5.4900     1.0750    -0.4330 c5         1 HY8       0.314300
     26 C23         -5.6230     2.8830     1.3090 ca         1 HY8       0.142500
     27 C24         -4.7410     3.8810     1.6940 ca         1 HY8      -0.099600
     28 C25         -3.7680     2.8170     0.1530 cc         1 HY8       0.413700
     29 C26         -7.1240     3.5120     2.7830 ca         1 HY8       0.177900
     30 C27         -5.1750     4.7340     2.7250 ca         1 HY8       0.446900
     31 N10         -6.8300     2.6540     1.8230 nb         1 HY8      -0.202000
     32 N11         -6.3860     4.5160     3.2510 nb         1 HY8      -0.309000
     33 N12         -4.4350     5.7440     3.1860 nv         1 HY8      -1.072900
     34 N4           3.3910    -0.8250    -3.0140 nb         1 HY8      -0.304000
     35 N5           1.9980    -1.1240    -1.1940 nu         1 HY8      -0.903100
     36 N6          -2.7850    -2.1980    -1.1300 n3         1 HY8      -0.721600
     37 N7          -4.1960    -6.1490     0.4330 n8         1 HY8      -0.993200
     38 N8          -4.9820     2.2060     0.3120 na         1 HY8      -0.287300
     39 N9          -3.5850     3.8200     0.9600 nd         1 HY8      -0.564100
     40 O1           8.0070     1.6070     0.1300 os         1 HY8      -0.430000
     41 O2           9.3580     3.8290     1.2380 oh         1 HY8      -0.710000
     42 O3          10.4510    -0.1490     1.4040 oh         1 HY8      -0.713000
     43 O4           8.2370    -1.3250     0.8110 oh         1 HY8      -0.699000
     44 O5          -5.4180    -5.4620     2.7340 o          1 HY8      -0.729500
     45 O6          -3.5320    -4.6310     3.5800 o          1 HY8      -0.729500
     46 O7          -4.5370     0.0560    -0.4490 os         1 HY8      -0.406000
     47 O8          -6.5920    -0.8230    -2.3620 oh         1 HY8      -0.695000
     48 O9          -7.1010     1.8870    -2.0110 oh         1 HY8      -0.692000
     49 H1           7.8750     0.7420    -1.7490 h2         1 HY8       0.087700
     50 H2          -4.8510    -2.3780    -1.3220 h1         1 HY8       0.056700
     51 H3          -4.0210    -2.2120    -2.8600 h1         1 HY8       0.056700
     52 H4           9.4080     2.0490     2.3150 h1         1 HY8       0.036200
     53 H5          10.9140     2.4720     1.4990 h1         1 HY8       0.036200
     54 H6           1.0470    -2.3660    -2.5850 h1         1 HY8       0.048200
     55 H7           0.6640    -0.6600    -2.7300 h1         1 HY8       0.048200
     56 H8           6.1280     0.2130     1.6130 h5         1 HY8       0.074800
     57 H9           4.6810    -0.5360    -4.5760 h5         1 HY8       0.037100
     58 H10         -0.1820    -2.4770    -0.4250 hc         1 HY8       0.065200
     59 H11         -0.5520    -0.7620    -0.5270 hc         1 HY8       0.065200
     60 H12         -1.8070    -1.0790    -2.5910 h1         1 HY8       0.016700
     61 H13         -1.4270    -2.7850    -2.6500 h1         1 HY8       0.016700
     62 H14          8.9460    -1.2400    -1.1110 h1         1 HY8       0.077700
     63 H15          9.7810     2.2310    -0.7020 h1         1 HY8       0.059700
     64 H16         -1.7730    -3.8450    -0.3690 h1         1 HY8       0.020700
     65 H17         -3.1390    -4.2650    -1.3840 h1         1 HY8       0.020700
     66 H18         -3.2360    -2.9910     1.3970 hc         1 HY8       0.057200
     67 H19         -4.6720    -3.4320     0.4840 hc         1 HY8       0.057200
     68 H20         -2.5190    -5.3810     1.3900 h1         1 HY8       0.041700
     69 H21         -3.4380     0.1660    -2.1980 h1         1 HY8       0.037700
     70 H22         10.7440     0.1920    -0.6090 h1         1 HY8       0.053700
     71 H23         -5.2940     0.1790    -3.6420 h1         1 HY8       0.046700
     72 H24         -5.0620     2.1380    -2.2700 h1         1 HY8       0.047700
     73 H25         -6.4030     0.7600     0.0830 h2         1 HY8       0.129700
     74 H26         -3.0490     2.4720    -0.5740 h5         1 HY8       0.065800
     75 H27         -8.0930     3.3880     3.2540 h5         1 HY8       0.043100
     76 H28         -3.5030     5.9020     2.8460 hn         1 HY8       0.502000
     77 H29         -4.7630     6.3020     3.9550 hn         1 HY8       0.502000
     78 H30          1.8900    -1.1050    -0.1930 hn         1 HY8       0.522000
     79 H32         -5.2010    -6.0400     0.4970 hn         1 HY8       0.375500
     80 H33         -3.9480    -6.0320    -0.5410 hn         1 HY8       0.375500
     81 H35          9.6420     4.3440     1.9990 ho         1 HY8       0.505000
     82 H36         11.1760    -0.7670     1.2710 ho         1 HY8       0.518000
     83 H37          8.8610    -1.1950     1.5420 ho         1 HY8       0.525000
     84 H39         -7.4140    -0.3330    -2.4780 ho         1 HY8       0.517000
     85 H40         -7.1910     2.3540    -2.8480 ho         1 HY8       0.507000
@<TRIPOS>BOND
     1     1    12 1   
     2     1    14 1   
     3     1    40 1   
     4     1    49 1   
     5     2    21 1   
     6     2    36 1   
     7     2    50 1   
     8     2    51 1   
     9     3    16 1   
    10     3    41 1   
    11     3    52 1   
    12     3    53 1   
    13     4     6 ar  
    14     4    12 1   
    15     4    15 ar  
    16     5    10 1   
    17     5    35 1   
    18     5    54 1   
    19     5    55 1   
    20     6     9 ar  
    21     6    13 1   
    22     7    12 1   
    23     7    13 2   
    24     7    56 1   
    25     8    15 ar  
    26     8    34 ar  
    27     8    57 1   
    28     9    34 ar  
    29     9    35 1   
    30    10    11 1   
    31    10    58 1   
    32    10    59 1   
    33    11    36 1   
    34    11    60 1   
    35    11    61 1   
    36    14    22 1   
    37    14    43 1   
    38    14    62 1   
    39    16    22 1   
    40    16    40 1   
    41    16    63 1   
    42    17    18 1   
    43    17    36 1   
    44    17    64 1   
    45    17    65 1   
    46    18    19 1   
    47    18    66 1   
    48    18    67 1   
    49    19    20 1   
    50    19    37 1   
    51    19    68 1   
    52    20    44 1   
    53    20    45 1   
    54    21    23 1   
    55    21    46 1   
    56    21    69 1   
    57    22    42 1   
    58    22    70 1   
    59    23    24 1   
    60    23    47 1   
    61    23    71 1   
    62    24    25 1   
    63    24    48 1   
    64    24    72 1   
    65    25    38 1   
    66    25    46 1   
    67    25    73 1   
    68    26    27 ar  
    69    26    31 ar  
    70    26    38 1   
    71    27    30 ar  
    72    27    39 1   
    73    28    38 1   
    74    28    39 2   
    75    28    74 1   
    76    29    31 ar  
    77    29    32 ar  
    78    29    75 1   
    79    30    32 ar  
    80    30    33 1   
    81    33    76 1   
    82    33    77 1   
    83    35    78 1   
    84    37    79 1   
    85    37    80 1   
    86    41    81 1   
    87    42    82 1   
    88    43    83 1   
    89    47    84 1   
    90    48    85 1   
@<TRIPOS>SUBSTRUCTURE
     1 HY8         1 TEMP              0 ****  ****    0 ROOT
