@<TRIPOS>MOLECULE
HY9
   56    56     1     0     0
SMALL
No Charge or Current Charge


@<TRIPOS>ATOM
      1 C3          29.5940    12.5760   -18.0080 c          1 HY9       0.590100
      2 C4          30.1320    10.9030   -21.1210 c          1 HY9       0.591100
      3 C5          32.6360    10.9190   -21.6360 c3         1 HY9       0.046700
      4 C6          26.6370    12.6810   -20.3990 c3         1 HY9       0.170800
      5 C7          24.3080    12.3560   -19.5820 c3         1 HY9       0.180800
      6 C8          25.8980    10.4480   -19.5220 c3         1 HY9       0.006800
      7 C9          24.8040     9.3490   -19.2680 c          1 HY9       0.722000
      8 C10         30.0790    13.8440   -17.3190 c3         1 HY9      -0.181100
      9 O3          29.8920     9.9970   -21.9080 o          1 HY9      -0.576100
     10 N2          31.4160    11.3870   -20.9340 ns         1 HY9      -0.499900
     11 C11         32.5430    11.1280   -23.1700 c3         1 HY9      -0.115100
     12 C12         33.0430     9.4680   -21.2030 c          1 HY9       0.602100
     13 C27         22.3160    14.0200   -19.7740 c5         1 HY9      -0.076900
     14 C23         23.6820    13.5590   -20.3410 c5         1 HY9      -0.058700
     15 C24         23.2510    13.2630   -21.8010 c5         1 HY9      -0.076900
     16 C25         22.4660    14.5510   -22.1810 c5         1 HY9      -0.080900
     17 C26         21.8650    15.0660   -20.8320 c5         1 HY9      -0.080900
     18 O2          29.2790    11.5700   -17.3910 o          1 HY9      -0.572100
     19 N1          29.5490    12.6500   -19.3830 ns         1 HY9      -0.520900
     20 C1          27.8740    12.1420   -21.1640 c3         1 HY9      -0.085400
     21 C2          29.0150    11.5810   -20.2710 c3         1 HY9       0.028700
     22 N4          34.0770     8.8920   -21.9410 ns         1 HY9      -0.376400
     23 O4          24.3070     9.2690   -18.1510 o          1 HY9      -0.727000
     24 N5          25.5050    11.7270   -20.2160 n3         1 HY9      -0.682600
     25 O5          24.5020     8.5980   -20.1880 o          1 HY9      -0.727000
     26 O8          32.5150     8.8730   -20.2680 o          1 HY9      -0.547100
     27 O9          34.3870     7.4820   -21.8190 oh         1 HY9      -0.420100
     28 H1          33.4560    11.5600   -21.2870 h1         1 HY9       0.055700
     29 H2          26.9500    13.0840   -19.4260 h1         1 HY9       0.010200
     30 H3          26.2810    13.5360   -20.9860 h1         1 HY9       0.010200
     31 H4          24.5580    12.6860   -18.5640 h1         1 HY9       0.038200
     32 H5          23.5140    11.6040   -19.4840 h1         1 HY9       0.038200
     33 H6          26.6790     9.9460   -20.1060 h1         1 HY9       0.020200
     34 H7          26.3430    10.6910   -18.5470 h1         1 HY9       0.020200
     35 H8          31.0550    14.1240   -17.7300 hc         1 HY9       0.054367
     36 H9          29.4460    14.6830   -17.6320 hc         1 HY9       0.054367
     37 H10         30.1110    13.7470   -16.2280 hc         1 HY9       0.054367
     38 H11         31.5120    12.1130   -20.2340 hn         1 HY9       0.320500
     39 H12         32.1890    12.1400   -23.3970 hc         1 HY9       0.047367
     40 H13         33.5250    11.0090   -23.6440 hc         1 HY9       0.047367
     41 H14         31.8540    10.4110   -23.6310 hc         1 HY9       0.047367
     42 H17         24.3980    14.3880   -20.2990 hc         1 HY9       0.019700
     43 H18         22.6130    12.3730   -21.8600 hc         1 HY9       0.052950
     44 H19         24.1060    13.0900   -22.4650 hc         1 HY9       0.052950
     45 H20         23.1340    15.3040   -22.6170 hc         1 HY9       0.025200
     46 H21         21.6900    14.3450   -22.9260 hc         1 HY9       0.025200
     47 H22         22.2580    16.0610   -20.5910 hc         1 HY9       0.025200
     48 H23         20.7740    15.1570   -20.8730 hc         1 HY9       0.025200
     49 H24         29.7970    13.5440   -19.7940 hn         1 HY9       0.306500
     50 H25         27.5440    11.3800   -21.8810 hc         1 HY9       0.060200
     51 H26         28.2880    12.9600   -21.7660 hc         1 HY9       0.060200
     52 H27         28.6140    10.7740   -19.6480 h1         1 HY9       0.125700
     53 H28         34.4010     9.3500   -22.7910 hn         1 HY9       0.332500
     54 H31         35.3630     7.4710   -21.6790 ho         1 HY9       0.433000
     55 H15         22.4030    14.4560   -18.7720 hc         1 HY9       0.052950
     56 H16         21.6030    13.1890   -19.7050 hc         1 HY9       0.052950
@<TRIPOS>BOND
     1     1     8 1   
     2     1    18 2   
     3     1    19 1   
     4     2     9 2   
     5     2    10 1   
     6     2    21 1   
     7     3    10 1   
     8     3    11 1   
     9     3    12 1   
    10     3    28 1   
    11     4    20 1   
    12     4    24 1   
    13     4    29 1   
    14     4    30 1   
    15     5    14 1   
    16     5    24 1   
    17     5    31 1   
    18     5    32 1   
    19     6     7 1   
    20     6    24 1   
    21     6    33 1   
    22     6    34 1   
    23     7    23 1   
    24     7    25 1   
    25     8    35 1   
    26     8    36 1   
    27     8    37 1   
    28    10    38 1   
    29    11    39 1   
    30    11    40 1   
    31    11    41 1   
    32    12    22 1   
    33    12    26 2   
    34    13    14 1   
    35    13    17 1   
    36    13    55 1   
    37    13    56 1   
    38    14    15 1   
    39    14    42 1   
    40    15    16 1   
    41    15    43 1   
    42    15    44 1   
    43    16    17 1   
    44    16    45 1   
    45    16    46 1   
    46    17    47 1   
    47    17    48 1   
    48    19    21 1   
    49    19    49 1   
    50    20    21 1   
    51    20    50 1   
    52    20    51 1   
    53    21    52 1   
    54    22    27 1   
    55    22    53 1   
    56    27    54 1   
@<TRIPOS>SUBSTRUCTURE
     1 HY9         1 TEMP              0 ****  ****    0 ROOT
