@<TRIPOS>MOLECULE
HY9
   56    56     1     0     0
SMALL
abcg2


@<TRIPOS>ATOM
      1 C3          30.2960    12.8990   -17.9090 c          1 HY9       0.590100
      2 C4          30.1730    11.0750   -20.6050 c          1 HY9       0.591100
      3 C5          32.3670    11.0500   -21.6620 c3         1 HY9       0.046700
      4 C6          26.7210    12.6960   -20.0100 c3         1 HY9       0.170800
      5 C7          24.3920    12.2270   -19.6920 c3         1 HY9       0.180800
      6 C8          25.9680    10.4320   -19.7050 c3         1 HY9       0.006800
      7 C9          25.0830     9.2580   -20.1890 c          1 HY9       0.722000
      8 C10         30.7610    14.1990   -17.3050 c3         1 HY9      -0.181100
      9 O3          29.9010     9.9530   -21.0120 o          1 HY9      -0.576100
     10 N2          31.3410    11.6740   -20.8560 ns         1 HY9      -0.499900
     11 C11         32.0430    11.1150   -23.1510 c3         1 HY9      -0.115100
     12 C12         32.6900     9.6690   -21.0760 c          1 HY9       0.602100
     13 C27         22.3810    13.7620   -19.9740 c5         1 HY9      -0.076900
     14 C23         23.7970    13.4140   -20.4350 c5         1 HY9      -0.058700
     15 C24         23.6160    13.1900   -21.9400 c5         1 HY9      -0.076900
     16 C25         22.4920    14.1570   -22.3720 c5         1 HY9      -0.080900
     17 C26         21.8770    14.7030   -21.0670 c5         1 HY9      -0.080900
     18 O2          30.4850    11.8220   -17.3670 o          1 HY9      -0.572100
     19 N1          29.6750    13.0050   -19.1050 ns         1 HY9      -0.520900
     20 C1          28.0160    12.3300   -20.7470 c3         1 HY9      -0.085400
     21 C2          29.1390    11.8690   -19.8120 c3         1 HY9       0.028700
     22 N4          32.8700     8.6930   -21.9880 ns         1 HY9      -0.376400
     23 O4          25.1910     8.2190   -19.5070 o          1 HY9      -0.727000
     24 N5          25.6490    11.7420   -20.2350 n3         1 HY9      -0.682600
     25 O5          24.4010     9.4120   -21.2190 o          1 HY9      -0.727000
     26 O8          32.8680     9.5160   -19.8840 o          1 HY9      -0.547100
     27 O9          33.0450     7.4100   -21.5570 oh         1 HY9      -0.420100
     28 H1          33.2750    11.6350   -21.4950 h1         1 HY9       0.055700
     29 H2          26.9270    12.8250   -18.9310 h1         1 HY9       0.010200
     30 H3          26.3840    13.6710   -20.3620 h1         1 HY9       0.010200
     31 H4          24.4930    12.4810   -18.6200 h1         1 HY9       0.038200
     32 H5          23.6690    11.4120   -19.7460 h1         1 HY9       0.038200
     33 H6          26.9830    10.1640   -20.0150 h1         1 HY9       0.020200
     34 H7          25.9910    10.4330   -18.6010 h1         1 HY9       0.020200
     35 H8          31.8500    14.2500   -17.3600 hc         1 HY9       0.054367
     36 H9          30.3550    15.0800   -17.7980 hc         1 HY9       0.054367
     37 H10         30.4880    14.2310   -16.2510 hc         1 HY9       0.054367
     38 H11         31.5120    12.6000   -20.5000 hn         1 HY9       0.320500
     39 H12         31.8580    12.1510   -23.4310 hc         1 HY9       0.047367
     40 H13         32.8810    10.7650   -23.7550 hc         1 HY9       0.047367
     41 H14         31.1570    10.5350   -23.4100 hc         1 HY9       0.047367
     42 H17         24.4150    14.3070   -20.2860 hc         1 HY9       0.019700
     43 H18         23.3180    12.1530   -22.1140 hc         1 HY9       0.052950
     44 H19         24.5410    13.3450   -22.4970 hc         1 HY9       0.052950
     45 H20         22.8740    14.9660   -22.9960 hc         1 HY9       0.025200
     46 H21         21.7440    13.6340   -22.9710 hc         1 HY9       0.025200
     47 H22         22.2410    15.7140   -20.8730 hc         1 HY9       0.025200
     48 H23         20.7880    14.7610   -21.1060 hc         1 HY9       0.025200
     49 H24         29.5210    13.9220   -19.4950 hn         1 HY9       0.306500
     50 H25         27.8050    11.5470   -21.4760 hc         1 HY9       0.060200
     51 H26         28.3780    13.1840   -21.3260 hc         1 HY9       0.060200
     52 H27         28.7260    11.1690   -19.0820 h1         1 HY9       0.125700
     53 H28         32.5020     8.7580   -22.9250 hn         1 HY9       0.332500
     54 H31         33.9920     7.2350   -21.6240 ho         1 HY9       0.433000
     55 H15         22.3470    14.2050   -18.9770 hc         1 HY9       0.052950
     56 H16         21.7750    12.8500   -19.9500 hc         1 HY9       0.052950
@<TRIPOS>BOND
     1     1     8 1   
     2     1    18 2   
     3     1    19 1   
     4     2     9 2   
     5     2    10 1   
     6     2    21 1   
     7     3    10 1   
     8     3    11 1   
     9     3    12 1   
    10     3    28 1   
    11     4    20 1   
    12     4    24 1   
    13     4    29 1   
    14     4    30 1   
    15     5    14 1   
    16     5    24 1   
    17     5    31 1   
    18     5    32 1   
    19     6     7 1   
    20     6    24 1   
    21     6    33 1   
    22     6    34 1   
    23     7    23 1   
    24     7    25 1   
    25     8    35 1   
    26     8    36 1   
    27     8    37 1   
    28    10    38 1   
    29    11    39 1   
    30    11    40 1   
    31    11    41 1   
    32    12    22 1   
    33    12    26 2   
    34    13    14 1   
    35    13    17 1   
    36    13    55 1   
    37    13    56 1   
    38    14    15 1   
    39    14    42 1   
    40    15    16 1   
    41    15    43 1   
    42    15    44 1   
    43    16    17 1   
    44    16    45 1   
    45    16    46 1   
    46    17    47 1   
    47    17    48 1   
    48    19    21 1   
    49    19    49 1   
    50    20    21 1   
    51    20    50 1   
    52    20    51 1   
    53    21    52 1   
    54    22    27 1   
    55    22    53 1   
    56    27    54 1   
@<TRIPOS>SUBSTRUCTURE
     1 HY9         1 TEMP              0 ****  ****    0 ROOT
