@<TRIPOS>MOLECULE
HYA
   19    18     1     0     0
SMALL
No Charge or Current Charge


@<TRIPOS>ATOM
      1 C1          -1.4630     0.2130     0.0950 c2         1 HYA       0.559600
      2 C2          -0.0680     0.8580     0.2310 c3         1 HYA       0.117000
      3 C3           1.0540    -0.1270    -0.2170 c3         1 HYA       0.141300
      4 C4           2.4460     0.5480    -0.3510 c3         1 HYA       0.128600
      5 N           -2.1050     0.1520    -1.0270 n2         1 HYA      -0.427700
      6 O1          -1.9980    -0.2700     1.2210 oh         1 HYA      -0.628600
      7 O2           0.2040     1.3590     1.5750 oh         1 HYA      -0.708000
      8 O3           1.1690    -1.2290     0.7030 oh         1 HYA      -0.633000
      9 O4           3.4350    -0.4360    -0.7080 oh         1 HYA      -0.709000
     10 O           -3.3830    -0.4710    -0.9410 oh         1 HYA      -0.542000
     11 H2          -0.0510     1.6990    -0.4760 h1         1 HYA       0.102700
     12 H3           0.7850    -0.5020    -1.2160 h1         1 HYA       0.096700
     13 H41          2.7160     1.0310     0.5990 h1         1 HYA       0.030200
     14 H42          2.3910     1.3310    -1.1190 h1         1 HYA       0.030200
     15 HO1         -2.8500    -0.6000     0.8580 ho         1 HYA       0.494000
     16 HO2         -0.0040     0.6050     2.1790 ho         1 HYA       0.520000
     17 HO3          2.0820    -1.5710     0.5580 ho         1 HYA       0.442000
     18 HO4          4.2890     0.0420    -0.8380 ho         1 HYA       0.507000
     19 HO          -3.7560    -0.4480    -1.8590 ho         1 HYA       0.480000
@<TRIPOS>BOND
     1     1     2 1   
     2     1     5 2   
     3     1     6 1   
     4     2     3 1   
     5     2     7 1   
     6     2    11 1   
     7     3     4 1   
     8     3     8 1   
     9     3    12 1   
    10     4     9 1   
    11     4    13 1   
    12     4    14 1   
    13     5    10 1   
    14     6    15 1   
    15     7    16 1   
    16     8    17 1   
    17     9    18 1   
    18    10    19 1   
@<TRIPOS>SUBSTRUCTURE
     1 HYA         1 TEMP              0 ****  ****    0 ROOT
