@<TRIPOS>MOLECULE
HYA
   19    18     1     0     0
SMALL
abcg2


@<TRIPOS>ATOM
      1 C1          -1.3970     0.1280     0.0430 c2         1 HYA       0.559600
      2 C2          -0.0340     0.7580     0.1460 c3         1 HYA       0.117000
      3 C3           1.0780    -0.2240    -0.2590 c3         1 HYA       0.141300
      4 C4           2.3980     0.5140    -0.4170 c3         1 HYA       0.128600
      5 N           -2.1160     0.4080    -0.9670 n2         1 HYA      -0.427700
      6 O1          -1.7280    -0.6850     1.0430 oh         1 HYA      -0.628600
      7 O2           0.1750     1.3290     1.4130 oh         1 HYA      -0.708000
      8 O3           1.1710    -1.3170     0.6220 oh         1 HYA      -0.633000
      9 O4           3.3670    -0.3910    -0.8880 oh         1 HYA      -0.709000
     10 O           -3.3130    -0.2870    -0.9380 oh         1 HYA      -0.542000
     11 H2          -0.0210     1.5790    -0.5750 h1         1 HYA       0.102700
     12 H3           0.7990    -0.6360    -1.2350 h1         1 HYA       0.096700
     13 H41          2.6910     0.9520     0.5470 h1         1 HYA       0.030200
     14 H42          2.2470     1.3490    -1.1130 h1         1 HYA       0.030200
     15 HO1         -2.6350    -1.0040     0.9310 ho         1 HYA       0.494000
     16 HO2          0.1070     0.6440     2.0870 ho         1 HYA       0.520000
     17 HO3          1.7040    -1.0700     1.3840 ho         1 HYA       0.442000
     18 HO4          4.2170     0.0580    -0.8890 ho         1 HYA       0.507000
     19 HO          -3.8170     0.0800    -1.6700 ho         1 HYA       0.480000
@<TRIPOS>BOND
     1     1     2 1   
     2     1     5 2   
     3     1     6 1   
     4     2     3 1   
     5     2     7 1   
     6     2    11 1   
     7     3     4 1   
     8     3     8 1   
     9     3    12 1   
    10     4     9 1   
    11     4    13 1   
    12     4    14 1   
    13     5    10 1   
    14     6    15 1   
    15     7    16 1   
    16     8    17 1   
    17     9    18 1   
    18    10    19 1   
@<TRIPOS>SUBSTRUCTURE
     1 HYA         1 TEMP              0 ****  ****    0 ROOT
