@<TRIPOS>MOLECULE
HYB
   82    84     1     0     0
SMALL
No Charge or Current Charge


@<TRIPOS>ATOM
      1 S1           1.9520    -0.1870    -4.9090 s6         1 HYB       1.019000
      2 O2           0.7270    -0.1110    -5.7150 o          1 HYB      -0.517000
      3 O3           2.6180     1.0610    -4.5120 o          1 HYB      -0.517000
      4 C4          -2.8880     3.0860    -1.0240 ca         1 HYB      -0.090000
      5 C5          -2.2810     3.1400    -2.2850 ca         1 HYB      -0.110000
      6 C6          -1.6510     2.0030    -2.8080 ca         1 HYB      -0.099000
      7 C7          -1.6220     0.7900    -2.0870 ca         1 HYB      -0.088300
      8 C8          -2.2460     0.7280    -0.8070 ca         1 HYB      -0.015000
      9 C9          -2.8710     1.8900    -0.2840 ca         1 HYB      -0.027000
     10 C10         -3.4800     1.8650     0.9850 ca         1 HYB      -0.089000
     11 C11         -3.4760     0.6900     1.7480 ca         1 HYB      -0.113000
     12 C12         -2.8680    -0.4670     1.2440 ca         1 HYB      -0.104000
     13 C13         -2.2640    -0.4530    -0.0250 ca         1 HYB      -0.110000
     14 C15          0.5630     2.5500     5.0510 c3         1 HYB       0.135600
     15 N16          0.3630     0.5090     3.6070 ns         1 HYB      -0.489900
     16 C17         -0.3210     1.3520     4.5950 c3         1 HYB       0.123700
     17 C18         -0.8300     0.4980     5.7830 c3         1 HYB      -0.044100
     18 C19         -1.7730    -0.6230     5.3540 ca         1 HYB      -0.078300
     19 C20         -1.2760    -1.9150     5.0890 ca         1 HYB      -0.109000
     20 C21         -2.1470    -2.9410     4.6840 ca         1 HYB      -0.107500
     21 C22         -3.5220    -2.6830     4.5470 ca         1 HYB      -0.109000
     22 C23         -4.0240    -1.4000     4.8170 ca         1 HYB      -0.107500
     23 C24         -3.1520    -0.3730     5.2190 ca         1 HYB      -0.109000
     24 N25          1.1730     0.0470     0.0110 ns         1 HYB      -0.476900
     25 C26          1.3300    -0.2290     1.4570 c3         1 HYB       0.025700
     26 C27          0.5850     0.8520     2.2920 c          1 HYB       0.592100
     27 O28          0.2140     1.9240     1.8280 o          1 HYB      -0.604100
     28 C29          2.8300    -0.3650     1.8650 c3         1 HYB      -0.065700
     29 C30          3.5080    -1.5920     1.2120 c3         1 HYB      -0.087100
     30 C31          3.6470     0.9250     1.6070 c3         1 HYB      -0.087100
     31 C32          0.8550    -0.8940    -0.9400 c          1 HYB       0.606100
     32 O33          0.7390    -2.0820    -0.6700 o          1 HYB      -0.619100
     33 C34          0.6490    -0.3460    -2.3670 c3         1 HYB      -0.113700
     34 C35         -0.8640    -0.3790    -2.7290 c3         1 HYB      -0.032100
     35 C36          1.5640    -1.1040    -3.3870 c3         1 HYB      -0.267400
     36 C37          3.5240    -0.5020    -7.1730 c3         1 HYB      -0.085767
     37 C38          3.1810    -1.2230    -5.8380 c3         1 HYB      -0.211000
     38 C39          4.4870    -1.3990    -5.0080 c3         1 HYB      -0.085767
     39 C40          2.5770    -2.6220    -6.1550 c3         1 HYB      -0.085767
     40 H4          -3.3680     3.9740    -0.6220 ha         1 HYB       0.111000
     41 H5          -2.2920     4.0670    -2.8540 ha         1 HYB       0.114000
     42 H6          -1.1720     2.0680    -3.7830 ha         1 HYB       0.124000
     43 H10         -3.9550     2.7590     1.3820 ha         1 HYB       0.108000
     44 H11         -3.9490     0.6780     2.7260 ha         1 HYB       0.108000
     45 H12         -2.8670    -1.3800     1.8360 ha         1 HYB       0.116000
     46 H13         -1.8180    -1.3750    -0.3790 ha         1 HYB       0.118000
     47 HO4          2.3040     2.9050     5.8980 ho         1 HYB       0.445000
     48 H152        -0.0080     3.1620     5.7620 h1         1 HYB       0.035200
     49 HN6          0.7160    -0.3880     3.9120 hn         1 HYB       0.318500
     50 H17         -1.2070     1.7770     4.1030 h1         1 HYB       0.077700
     51 H181         0.0280     0.0780     6.3230 hc         1 HYB       0.061700
     52 H182        -1.3400     1.1560     6.4980 hc         1 HYB       0.061700
     53 H20         -0.2150    -2.1270     5.1960 ha         1 HYB       0.108000
     54 H21         -1.7580    -3.9350     4.4780 ha         1 HYB       0.115000
     55 H22         -4.1960    -3.4770     4.2340 ha         1 HYB       0.115000
     56 H23         -5.0880    -1.1990     4.7130 ha         1 HYB       0.115000
     57 H24         -3.5490     0.6190     5.4230 ha         1 HYB       0.108000
     58 HN5          1.1910     1.0150    -0.2910 hn         1 HYB       0.341500
     59 H26          0.8250    -1.1770     1.6870 h1         1 HYB       0.087700
     60 H29          2.8550    -0.5430     2.9480 hc         1 HYB       0.049700
     61 H301         4.5210    -1.7300     1.6090 hc         1 HYB       0.037867
     62 H302         2.9380    -2.5060     1.4170 hc         1 HYB       0.037867
     63 H303         3.5840    -1.4710     0.1240 hc         1 HYB       0.037867
     64 H311         3.6860     1.1620     0.5360 hc         1 HYB       0.037867
     65 H312         3.2090     1.7820     2.1330 hc         1 HYB       0.037867
     66 H313         4.6770     0.8060     1.9650 hc         1 HYB       0.037867
     67 H34          0.9540     0.7080    -2.3550 hc         1 HYB       0.083700
     68 H351        -0.9820    -0.3090    -3.8160 hc         1 HYB       0.067200
     69 H352        -1.3010    -1.3520    -2.4780 hc         1 HYB       0.067200
     70 H361         2.5330    -1.3040    -2.9180 h1         1 HYB       0.105700
     71 H362         1.1100    -2.0560    -3.6820 h1         1 HYB       0.105700
     72 H371         4.2510    -1.0800    -7.7570 hc         1 HYB       0.054367
     73 H372         2.6290    -0.3690    -7.7940 hc         1 HYB       0.054367
     74 H373         3.9580     0.4900    -6.9890 hc         1 HYB       0.054367
     75 H391         4.9230    -0.4280    -4.7370 hc         1 HYB       0.054367
     76 H392         4.3100    -1.9620    -4.0850 hc         1 HYB       0.054367
     77 H393         5.2410    -1.9500    -5.5850 hc         1 HYB       0.054367
     78 H401         1.6410    -2.5330    -6.7210 hc         1 HYB       0.054367
     79 H402         3.2730    -3.2180    -6.7580 hc         1 HYB       0.054367
     80 H403         2.3690    -3.1890    -5.2400 hc         1 HYB       0.054367
     81 H151         0.7820     3.1830     4.1810 h1         1 HYB       0.035200
     82 O14          1.7920     2.1020     5.6550 oh         1 HYB      -0.667000
@<TRIPOS>BOND
     1     1     2 2   
     2     1     3 2   
     3     1    35 1   
     4     1    37 1   
     5     4     5 ar  
     6     4     9 ar  
     7     4    40 1   
     8     5     6 ar  
     9     5    41 1   
    10     6     7 ar  
    11     6    42 1   
    12     7     8 ar  
    13     7    34 1   
    14     8     9 ar  
    15     8    13 ar  
    16     9    10 ar  
    17    10    11 ar  
    18    10    43 1   
    19    11    12 ar  
    20    11    44 1   
    21    12    13 ar  
    22    12    45 1   
    23    13    46 1   
    24    14    16 1   
    25    14    48 1   
    26    14    81 1   
    27    14    82 1   
    28    15    16 1   
    29    15    26 1   
    30    15    49 1   
    31    16    17 1   
    32    16    50 1   
    33    17    18 1   
    34    17    51 1   
    35    17    52 1   
    36    18    19 ar  
    37    18    23 ar  
    38    19    20 ar  
    39    19    53 1   
    40    20    21 ar  
    41    20    54 1   
    42    21    22 ar  
    43    21    55 1   
    44    22    23 ar  
    45    22    56 1   
    46    23    57 1   
    47    24    25 1   
    48    24    31 1   
    49    24    58 1   
    50    25    26 1   
    51    25    28 1   
    52    25    59 1   
    53    26    27 2   
    54    28    29 1   
    55    28    30 1   
    56    28    60 1   
    57    29    61 1   
    58    29    62 1   
    59    29    63 1   
    60    30    64 1   
    61    30    65 1   
    62    30    66 1   
    63    31    32 2   
    64    31    33 1   
    65    33    34 1   
    66    33    35 1   
    67    33    67 1   
    68    34    68 1   
    69    34    69 1   
    70    35    70 1   
    71    35    71 1   
    72    36    37 1   
    73    36    72 1   
    74    36    73 1   
    75    36    74 1   
    76    37    38 1   
    77    37    39 1   
    78    38    75 1   
    79    38    76 1   
    80    38    77 1   
    81    39    78 1   
    82    39    79 1   
    83    39    80 1   
    84    47    82 1   
@<TRIPOS>SUBSTRUCTURE
     1 HYB         1 TEMP              0 ****  ****    0 ROOT
