@<TRIPOS>MOLECULE
HYB
   82    84     1     0     0
SMALL
abcg2


@<TRIPOS>ATOM
      1 S1           1.5260    -0.6270    -4.9830 s6         1 HYB       1.019000
      2 O2           0.3340    -1.1660    -5.6480 o          1 HYB      -0.517000
      3 O3           1.6620     0.8330    -4.9200 o          1 HYB      -0.517000
      4 C4          -2.4520     3.2790    -0.9290 ca         1 HYB      -0.090000
      5 C5          -1.8300     3.2850    -2.1460 ca         1 HYB      -0.110000
      6 C6          -1.2780     2.0970    -2.6550 ca         1 HYB      -0.099000
      7 C7          -1.3380     0.9110    -1.9610 ca         1 HYB      -0.088300
      8 C8          -1.9680     0.8850    -0.6850 ca         1 HYB      -0.015000
      9 C9          -2.5330     2.0880    -0.1750 ca         1 HYB      -0.027000
     10 C10         -3.1680     2.0770     1.0880 ca         1 HYB      -0.089000
     11 C11         -3.2340     0.9330     1.8300 ca         1 HYB      -0.113000
     12 C12         -2.6660    -0.2590     1.3390 ca         1 HYB      -0.104000
     13 C13         -2.0590    -0.2830     0.1140 ca         1 HYB      -0.110000
     14 C15          0.5000     2.2620     4.9500 c3         1 HYB       0.135600
     15 N16          0.2340     0.3300     3.4530 ns         1 HYB      -0.489900
     16 C17         -0.4180     1.1530     4.4510 c3         1 HYB       0.123700
     17 C18         -0.9040     0.2610     5.5990 c3         1 HYB      -0.044100
     18 C19         -1.9120    -0.7660     5.1660 ca         1 HYB      -0.078300
     19 C20         -1.5290    -2.0620     4.8290 ca         1 HYB      -0.109000
     20 C21         -2.4640    -2.9950     4.3970 ca         1 HYB      -0.107500
     21 C22         -3.8040    -2.6450     4.3010 ca         1 HYB      -0.109000
     22 C23         -4.2010    -1.3590     4.6470 ca         1 HYB      -0.107500
     23 C24         -3.2610    -0.4330     5.0760 ca         1 HYB      -0.109000
     24 N25          1.2840     0.0360     0.0200 ns         1 HYB      -0.476900
     25 C26          1.3740    -0.2620     1.4250 c3         1 HYB       0.025700
     26 C27          0.5180     0.7340     2.2070 c          1 HYB       0.592100
     27 O28          0.1810     1.8090     1.7400 o          1 HYB      -0.604100
     28 C29          2.8290    -0.2420     1.9520 c3         1 HYB      -0.065700
     29 C30          3.6910    -1.2600     1.2140 c3         1 HYB      -0.087100
     30 C31          3.4540     1.1470     1.8900 c3         1 HYB      -0.087100
     31 C32          1.0590    -0.8980    -0.9140 c          1 HYB       0.606100
     32 O33          1.0140    -2.0980    -0.6830 o          1 HYB      -0.619100
     33 C34          0.8240    -0.3640    -2.3200 c3         1 HYB      -0.113700
     34 C35         -0.6950    -0.2950    -2.5950 c3         1 HYB      -0.032100
     35 C36          1.5760    -1.2700    -3.2930 c3         1 HYB      -0.267400
     36 C37          2.8550    -0.9050    -7.2920 c3         1 HYB      -0.085767
     37 C38          2.9970    -1.3130    -5.8260 c3         1 HYB      -0.211000
     38 C39          4.2560    -0.7060    -5.2180 c3         1 HYB      -0.085767
     39 C40          2.9770    -2.8310    -5.6800 c3         1 HYB      -0.085767
     40 H4          -2.8850     4.1870    -0.5270 ha         1 HYB       0.111000
     41 H5          -1.7610     4.1980    -2.7240 ha         1 HYB       0.114000
     42 H6          -0.7850     2.1120    -3.6210 ha         1 HYB       0.124000
     43 H10         -3.5960     2.9980     1.4640 ha         1 HYB       0.108000
     44 H11         -3.7180     0.9360     2.7970 ha         1 HYB       0.108000
     45 H12         -2.7110    -1.1560     1.9440 ha         1 HYB       0.116000
     46 H13         -1.6390    -1.2150    -0.2400 ha         1 HYB       0.118000
     47 HO4          2.2760     2.3810     5.7160 ho         1 HYB       0.445000
     48 H152        -0.0610     2.8750     5.6700 h1         1 HYB       0.035200
     49 HN6          0.6060    -0.5560     3.7530 hn         1 HYB       0.318500
     50 H17         -1.2850     1.6310     3.9860 h1         1 HYB       0.077700
     51 H181        -0.0460    -0.2250     6.0700 hc         1 HYB       0.061700
     52 H182        -1.3480     0.9110     6.3570 hc         1 HYB       0.061700
     53 H20         -0.4890    -2.3590     4.9190 ha         1 HYB       0.108000
     54 H21         -2.1450    -3.9970     4.1400 ha         1 HYB       0.115000
     55 H22         -4.5350    -3.3710     3.9700 ha         1 HYB       0.115000
     56 H23         -5.2450    -1.0780     4.5860 ha         1 HYB       0.115000
     57 H24         -3.5820     0.5660     5.3500 ha         1 HYB       0.108000
     58 HN5          1.1980     1.0080    -0.2400 hn         1 HYB       0.341500
     59 H26          0.9780    -1.2680     1.5780 h1         1 HYB       0.087700
     60 H29          2.7780    -0.5470     3.0020 hc         1 HYB       0.049700
     61 H301         4.6760    -1.3220     1.6790 hc         1 HYB       0.037867
     62 H302         3.2500    -2.2560     1.2310 hc         1 HYB       0.037867
     63 H303         3.8410    -0.9740     0.1720 hc         1 HYB       0.037867
     64 H311         3.4640     1.5320     0.8680 hc         1 HYB       0.037867
     65 H312         2.9320     1.8670     2.5210 hc         1 HYB       0.037867
     66 H313         4.4880     1.1080     2.2320 hc         1 HYB       0.037867
     67 H34          1.2340     0.6450    -2.4030 hc         1 HYB       0.083700
     68 H351        -0.8570    -0.2200    -3.6690 hc         1 HYB       0.067200
     69 H352        -1.1650    -1.2320    -2.2920 hc         1 HYB       0.067200
     70 H361         2.6270    -1.3340    -3.0050 h1         1 HYB       0.105700
     71 H362         1.1680    -2.2790    -3.3220 h1         1 HYB       0.105700
     72 H371         3.7410    -1.2460    -7.8270 hc         1 HYB       0.054367
     73 H372         1.9840    -1.3600    -7.7610 hc         1 HYB       0.054367
     74 H373         2.7940     0.1770    -7.4110 hc         1 HYB       0.054367
     75 H391         4.2950     0.3730    -5.3520 hc         1 HYB       0.054367
     76 H392         4.3640    -0.9280    -4.1560 hc         1 HYB       0.054367
     77 H393         5.1200    -1.1380    -5.7240 hc         1 HYB       0.054367
     78 H401         2.0490    -3.2670    -6.0500 hc         1 HYB       0.054367
     79 H402         3.7950    -3.2450    -6.2700 hc         1 HYB       0.054367
     80 H403         3.1260    -3.1550    -4.6490 hc         1 HYB       0.054367
     81 H151         0.7600     2.9140     4.1090 h1         1 HYB       0.035200
     82 O14          1.6450     1.6820     5.5300 oh         1 HYB      -0.667000
@<TRIPOS>BOND
     1     1     2 2   
     2     1     3 2   
     3     1    35 1   
     4     1    37 1   
     5     4     5 ar  
     6     4     9 ar  
     7     4    40 1   
     8     5     6 ar  
     9     5    41 1   
    10     6     7 ar  
    11     6    42 1   
    12     7     8 ar  
    13     7    34 1   
    14     8     9 ar  
    15     8    13 ar  
    16     9    10 ar  
    17    10    11 ar  
    18    10    43 1   
    19    11    12 ar  
    20    11    44 1   
    21    12    13 ar  
    22    12    45 1   
    23    13    46 1   
    24    14    16 1   
    25    14    48 1   
    26    14    81 1   
    27    14    82 1   
    28    15    16 1   
    29    15    26 1   
    30    15    49 1   
    31    16    17 1   
    32    16    50 1   
    33    17    18 1   
    34    17    51 1   
    35    17    52 1   
    36    18    19 ar  
    37    18    23 ar  
    38    19    20 ar  
    39    19    53 1   
    40    20    21 ar  
    41    20    54 1   
    42    21    22 ar  
    43    21    55 1   
    44    22    23 ar  
    45    22    56 1   
    46    23    57 1   
    47    24    25 1   
    48    24    31 1   
    49    24    58 1   
    50    25    26 1   
    51    25    28 1   
    52    25    59 1   
    53    26    27 2   
    54    28    29 1   
    55    28    30 1   
    56    28    60 1   
    57    29    61 1   
    58    29    62 1   
    59    29    63 1   
    60    30    64 1   
    61    30    65 1   
    62    30    66 1   
    63    31    32 2   
    64    31    33 1   
    65    33    34 1   
    66    33    35 1   
    67    33    67 1   
    68    34    68 1   
    69    34    69 1   
    70    35    70 1   
    71    35    71 1   
    72    36    37 1   
    73    36    72 1   
    74    36    73 1   
    75    36    74 1   
    76    37    38 1   
    77    37    39 1   
    78    38    75 1   
    79    38    76 1   
    80    38    77 1   
    81    39    78 1   
    82    39    79 1   
    83    39    80 1   
    84    47    82 1   
@<TRIPOS>SUBSTRUCTURE
     1 HYB         1 TEMP              0 ****  ****    0 ROOT
