@<TRIPOS>MOLECULE
HYC
  100   106     1     0     0
SMALL
abcg2


@<TRIPOS>ATOM
      1 C1          12.8590    -0.0040    -0.5200 ca         1 HYC      -0.074000
      2 C2          13.8830     0.9170    -0.6500 ca         1 HYC      -0.146000
      3 C3          13.5970     2.1940    -1.1240 ca         1 HYC       0.137100
      4 O3          14.6140     3.0760    -1.2370 oh         1 HYC      -0.534100
      5 C4          12.2880     2.5090    -1.4610 ca         1 HYC      -0.208000
      6 C5          11.2600     1.5770    -1.3300 ca         1 HYC      -0.031300
      7 C6           9.8640     2.0080    -1.7020 c6         1 HYC      -0.033100
      8 C7           8.8920     0.8480    -1.8460 c6         1 HYC      -0.069400
      9 C8           9.0450    -0.1120    -0.6750 c6         1 HYC      -0.045700
     10 C9          10.4410    -0.7550    -0.7270 c6         1 HYC      -0.005400
     11 C10         11.5340     0.2930    -0.8440 ca         1 HYC      -0.100300
     12 C11         10.6490    -1.7440     0.4280 c6         1 HYC      -0.069400
     13 C12          9.5390    -2.7970     0.4950 c6         1 HYC      -0.062400
     14 C13          8.1560    -2.1540     0.5520 c5         1 HYC      -0.039000
     15 C14          8.0080    -1.2190    -0.6560 c5         1 HYC      -0.064700
     16 C15          6.5220    -0.8770    -0.6680 c5         1 HYC      -0.065400
     17 C16          5.8360    -2.2080    -0.2800 c5         1 HYC      -0.094700
     18 C17          6.9870    -3.1070     0.2860 c5         1 HYC       0.178300
     19 O17          6.6700    -3.8610     1.4300 oh         1 HYC      -0.649000
     20 C18          7.9730    -1.4340     1.8930 c3         1 HYC      -0.072100
     21 C21          4.6380    -2.0270     0.6470 c3         1 HYC      -0.064400
     22 C22          3.5040    -1.2390    -0.0000 c3         1 HYC      -0.077400
     23 C23          2.3050    -1.0810     0.9260 c3         1 HYC      -0.075400
     24 C24          1.1390    -0.3270     0.2990 c3         1 HYC      -0.073400
     25 C25         -0.0470    -0.1900     1.2460 c3         1 HYC      -0.075400
     26 C26         -1.2360     0.5410     0.6350 c3         1 HYC      -0.075400
     27 C27         -2.4050     0.6560     1.6060 c3         1 HYC      -0.069400
     28 C28         -3.5980     1.3670     0.9870 c3         1 HYC      -0.136400
     29 C31         -9.5180     1.3120     0.0940 c5         1 HYC       0.315300
     30 C32        -10.0140     1.5190     1.5260 c5         1 HYC       0.080300
     31 O32        -11.4060     1.4540     1.5600 oh         1 HYC      -0.690000
     32 C33         -9.4170     2.8910     1.8500 c5         1 HYC       0.111300
     33 O33        -10.1520     3.9180     1.2400 oh         1 HYC      -0.702000
     34 C34         -8.0640     2.7870     1.1570 c5         1 HYC       0.163300
     35 O34         -8.2660     1.9350     0.0280 os         1 HYC      -0.433000
     36 C35         -7.0090     2.2150     2.0820 c3         1 HYC       0.145600
     37 O35         -5.8250     2.0320     1.3120 os         1 HYC      -0.433100
     38 C36         -4.7690     1.4960     1.9220 c          1 HYC       0.592100
     39 O36         -4.7790     1.1680     3.0810 o          1 HYC      -0.488000
     40 N41        -11.2640    -2.4940    -2.8360 nb         1 HYC      -0.303000
     41 C42        -11.6420    -1.2240    -2.7230 ca         1 HYC       0.183900
     42 N43        -11.1430    -0.2850    -1.9370 nb         1 HYC      -0.216000
     43 C44        -10.1380    -0.7460    -1.1970 ca         1 HYC       0.142500
     44 C45         -9.6330    -2.0360    -1.2050 ca         1 HYC      -0.102600
     45 C46        -10.2510    -2.9420    -2.0860 ca         1 HYC       0.452900
     46 N46         -9.8650    -4.2130    -2.2010 nv         1 HYC      -1.066900
     47 N47         -8.5890    -2.1580    -0.3250 nc         1 HYC      -0.553100
     48 C48         -8.4720    -0.9760     0.2020 cd         1 HYC       0.408700
     49 N49         -9.3800    -0.0720    -0.2810 na         1 HYC      -0.290300
     50 H1          13.1170    -0.9900    -0.1550 ha         1 HYC       0.113000
     51 H2          14.8990     0.6490    -0.3880 ha         1 HYC       0.127000
     52 HO3         14.2870     3.9180    -1.5720 ho         1 HYC       0.462000
     53 H4          12.0520     3.5010    -1.8370 ha         1 HYC       0.109000
     54 H61          9.8960     2.5950    -2.6230 hc         1 HYC       0.048200
     55 H62          9.4940     2.6910    -0.9300 hc         1 HYC       0.048200
     56 H71          9.0740     0.3120    -2.7840 hc         1 HYC       0.042700
     57 H72          7.8720     1.2360    -1.9010 hc         1 HYC       0.042700
     58 H8           8.9620     0.4800     0.2480 hc         1 HYC       0.057700
     59 H9          10.4640    -1.3500    -1.6530 hc         1 HYC       0.050700
     60 H111        10.7180    -1.1940     1.3710 hc         1 HYC       0.043200
     61 H112        11.6020    -2.2640     0.3160 hc         1 HYC       0.043200
     62 H121         9.7040    -3.4570     1.3510 hc         1 HYC       0.043700
     63 H122         9.5990    -3.4280    -0.4000 hc         1 HYC       0.043700
     64 H14          8.1980    -1.8370    -1.5490 hc         1 HYC       0.042700
     65 H151         6.2980    -0.0930     0.0620 hc         1 HYC       0.045700
     66 H152         6.1830    -0.5070    -1.6370 hc         1 HYC       0.045700
     67 H161         5.4610    -2.6840    -1.1930 hc         1 HYC       0.042700
     68 H17          7.2980    -3.7850    -0.5220 h1         1 HYC       0.024700
     69 HO7          6.0320    -4.5360     1.1820 ho         1 HYC       0.441000
     70 H181         8.7240    -0.6590     2.0410 hc         1 HYC       0.037367
     71 H182         7.0000    -0.9550     1.9930 hc         1 HYC       0.037367
     72 H183         8.0720    -2.1380     2.7180 hc         1 HYC       0.037367
     73 H211         4.2480    -3.0020     0.9560 hc         1 HYC       0.043200
     74 H212         4.9430    -1.5180     1.5670 hc         1 HYC       0.043200
     75 H221         3.8630    -0.2490    -0.3030 hc         1 HYC       0.037200
     76 H222         3.1930    -1.7450    -0.9220 hc         1 HYC       0.037200
     77 H231         1.9620    -2.0720     1.2430 hc         1 HYC       0.038700
     78 H232         2.6190    -0.5640     1.8400 hc         1 HYC       0.038700
     79 H241         1.4730     0.6680    -0.0150 hc         1 HYC       0.037700
     80 H242         0.8210    -0.8430    -0.6130 hc         1 HYC       0.037700
     81 H251        -0.3660    -1.1870     1.5690 hc         1 HYC       0.039700
     82 H252         0.2720     0.3340     2.1530 hc         1 HYC       0.039700
     83 H261        -0.9250     1.5410     0.3150 hc         1 HYC       0.039200
     84 H262        -1.5590     0.0170    -0.2710 hc         1 HYC       0.039200
     85 H271        -2.7030    -0.3450     1.9310 hc         1 HYC       0.054200
     86 H272        -2.0800     1.1890     2.5030 hc         1 HYC       0.054200
     87 H281        -3.3170     2.3730     0.6590 hc         1 HYC       0.075700
     88 H282        -3.9300     0.8470     0.0830 hc         1 HYC       0.075700
     89 H32         -9.5580     0.7670     2.1840 h1         1 HYC       0.054700
     90 HO21       -11.6890     1.2760     2.4620 ho         1 HYC       0.516000
     91 H33         -9.3140     3.0490     2.9320 h1         1 HYC       0.057700
     92 HO31       -11.0860     3.7720     1.4330 ho         1 HYC       0.525000
     93 H34         -7.7350     3.7660     0.7960 h1         1 HYC       0.106700
     94 H351        -7.3290     1.2650     2.5220 h1         1 HYC       0.051700
     95 H352        -6.8330     2.9170     2.9010 h1         1 HYC       0.051700
     96 H42        -12.4670    -0.9240    -3.3600 h5         1 HYC       0.047100
     97 HN41        -9.1090    -4.5800    -1.6500 hn         1 HYC       0.507000
     98 HN42       -10.3230    -4.8270    -2.8520 hn         1 HYC       0.507000
     99 H48         -7.7320    -0.7040     0.9410 h5         1 HYC       0.066800
    100 H31        -10.2260     1.7520    -0.6170 h2         1 HYC       0.124700
@<TRIPOS>BOND
     1     1     2 ar  
     2     1    11 ar  
     3     1    50 1   
     4     2     3 ar  
     5     2    51 1   
     6     3     4 1   
     7     3     5 ar  
     8     4    52 1   
     9     5     6 ar  
    10     5    53 1   
    11     6     7 1   
    12     6    11 ar  
    13     7     8 1   
    14     7    54 1   
    15     7    55 1   
    16     8     9 1   
    17     8    56 1   
    18     8    57 1   
    19     9    10 1   
    20     9    15 1   
    21     9    58 1   
    22    10    11 1   
    23    10    12 1   
    24    10    59 1   
    25    12    13 1   
    26    12    60 1   
    27    12    61 1   
    28    13    14 1   
    29    13    62 1   
    30    13    63 1   
    31    14    15 1   
    32    14    18 1   
    33    14    20 1   
    34    15    16 1   
    35    15    64 1   
    36    16    17 1   
    37    16    65 1   
    38    16    66 1   
    39    17    18 1   
    40    17    21 1   
    41    17    67 1   
    42    18    19 1   
    43    18    68 1   
    44    19    69 1   
    45    20    70 1   
    46    20    71 1   
    47    20    72 1   
    48    21    22 1   
    49    21    73 1   
    50    21    74 1   
    51    22    23 1   
    52    22    75 1   
    53    22    76 1   
    54    23    24 1   
    55    23    77 1   
    56    23    78 1   
    57    24    25 1   
    58    24    79 1   
    59    24    80 1   
    60    25    26 1   
    61    25    81 1   
    62    25    82 1   
    63    26    27 1   
    64    26    83 1   
    65    26    84 1   
    66    27    28 1   
    67    27    85 1   
    68    27    86 1   
    69    28    38 1   
    70    28    87 1   
    71    28    88 1   
    72    29    30 1   
    73    29    35 1   
    74    29    49 1   
    75    29   100 1   
    76    30    31 1   
    77    30    32 1   
    78    30    89 1   
    79    31    90 1   
    80    32    33 1   
    81    32    34 1   
    82    32    91 1   
    83    33    92 1   
    84    34    35 1   
    85    34    36 1   
    86    34    93 1   
    87    36    37 1   
    88    36    94 1   
    89    36    95 1   
    90    37    38 1   
    91    38    39 2   
    92    40    41 ar  
    93    40    45 ar  
    94    41    42 ar  
    95    41    96 1   
    96    42    43 ar  
    97    43    44 ar  
    98    43    49 1   
    99    44    45 ar  
   100    44    47 1   
   101    45    46 1   
   102    46    97 1   
   103    46    98 1   
   104    47    48 2   
   105    48    49 1   
   106    48    99 1   
@<TRIPOS>SUBSTRUCTURE
     1 HYC         1 TEMP              0 ****  ****    0 ROOT
