@<TRIPOS>MOLECULE
HYC
  100   106     1     0     0
SMALL
No Charge or Current Charge


@<TRIPOS>ATOM
      1 C1          12.4100     1.1590    -0.8020 ca         1 HYC      -0.074000
      2 C2          13.1470     2.1780    -1.4270 ca         1 HYC      -0.146000
      3 C3          12.5760     2.9250    -2.4620 ca         1 HYC       0.137100
      4 O3          13.2960     3.9130    -3.0630 oh         1 HYC      -0.534100
      5 C4          11.2700     2.6500    -2.8830 ca         1 HYC      -0.208000
      6 C5          10.5200     1.6270    -2.2680 ca         1 HYC      -0.031300
      7 C6           9.0950     1.3800    -2.7790 c6         1 HYC      -0.033100
      8 C7           8.4590     0.0710    -2.2700 c6         1 HYC      -0.069400
      9 C8           8.7350    -0.1010    -0.7600 c6         1 HYC      -0.045700
     10 C9          10.2740    -0.2650    -0.5280 c6         1 HYC      -0.005400
     11 C10         11.0810     0.8780    -1.1980 ca         1 HYC      -0.100300
     12 C11         10.5860    -0.4830     0.9940 c6         1 HYC      -0.069400
     13 C12          9.7600    -1.6510     1.6150 c6         1 HYC      -0.062400
     14 C13          8.2310    -1.4750     1.3820 c5         1 HYC      -0.039000
     15 C14          7.9850    -1.3190    -0.1490 c5         1 HYC      -0.064700
     16 C15          6.4360    -1.3550    -0.2190 c5         1 HYC      -0.065400
     17 C16          6.0790    -2.5520     0.7370 c5         1 HYC      -0.094700
     18 C17          7.3940    -2.7860     1.5890 c5         1 HYC       0.178300
     19 O17          7.1510    -3.0900     2.9640 oh         1 HYC      -0.649000
     20 C18          7.7360    -0.2830     2.2810 c3         1 HYC      -0.072100
     21 C21          4.7440    -2.3650     1.5170 c3         1 HYC      -0.064400
     22 C22          3.4990    -2.1830     0.6170 c3         1 HYC      -0.077400
     23 C23          2.1870    -2.0440     1.4200 c3         1 HYC      -0.075400
     24 C24          0.9450    -1.8580     0.5210 c3         1 HYC      -0.073400
     25 C25         -0.3670    -1.7190     1.3230 c3         1 HYC      -0.075400
     26 C26         -1.6080    -1.5320     0.4240 c3         1 HYC      -0.075400
     27 C27         -2.9200    -1.3920     1.2260 c3         1 HYC      -0.069400
     28 C28         -4.1630    -1.2040     0.3240 c3         1 HYC      -0.136400
     29 C31         -8.4390     2.5630     0.3260 c5         1 HYC       0.315300
     30 C32         -9.4210     2.3520     1.5490 c5         1 HYC       0.080300
     31 O32        -10.5200     3.2890     1.5920 oh         1 HYC      -0.690000
     32 C33         -8.4960     2.5480     2.7920 c5         1 HYC       0.111300
     33 O33         -8.5150     3.9260     3.1780 oh         1 HYC      -0.702000
     34 C34         -7.1220     2.0920     2.2170 c5         1 HYC       0.163300
     35 O34         -7.1170     2.6990     0.9010 os         1 HYC      -0.433000
     36 C35         -6.9420     0.5460     2.1390 c3         1 HYC       0.145600
     37 O35         -5.7520     0.2540     1.3800 os         1 HYC      -0.433100
     38 C36         -5.4370    -1.0600     1.1570 c          1 HYC       0.592100
     39 O36         -6.0870    -2.0090     1.5740 o          1 HYC      -0.488000
     40 N41        -11.1940    -0.7280    -2.7430 nb         1 HYC      -0.303000
     41 C42        -11.6040     0.1760    -1.8220 ca         1 HYC       0.183900
     42 N43        -10.8140     0.9790    -1.0710 nb         1 HYC      -0.216000
     43 C44         -9.4850     0.8550    -1.2690 ca         1 HYC       0.142500
     44 C45         -8.9680    -0.0280    -2.1830 ca         1 HYC      -0.102600
     45 C46         -9.8680    -0.8270    -2.9180 ca         1 HYC       0.452900
     46 N46         -9.4550    -1.7270    -3.8490 nv         1 HYC      -1.066900
     47 N47         -7.5800     0.0220    -2.2460 nc         1 HYC      -0.553100
     48 C48         -7.2950     0.9700    -1.3340 cd         1 HYC       0.408700
     49 N49         -8.4250     1.5050    -0.6870 na         1 HYC      -0.290300
     50 H1          12.8950     0.5900    -0.0150 ha         1 HYC       0.113000
     51 H2          14.1660     2.3840    -1.1080 ha         1 HYC       0.127000
     52 HO3         12.7380     4.3200    -3.7590 ho         1 HYC       0.462000
     53 H4          10.8270     3.2260    -3.6910 ha         1 HYC       0.109000
     54 H61          9.0850     1.3820    -3.8780 hc         1 HYC       0.048200
     55 H62          8.4640     2.2250    -2.4700 hc         1 HYC       0.048200
     56 H71          8.8670    -0.7850    -2.8270 hc         1 HYC       0.042700
     57 H72          7.3800     0.0930    -2.4720 hc         1 HYC       0.042700
     58 H8           8.3940     0.8120    -0.2550 hc         1 HYC       0.057700
     59 H9          10.5830    -1.1870    -1.0400 hc         1 HYC       0.050700
     60 H111        10.4170     0.4490     1.5490 hc         1 HYC       0.043200
     61 H112        11.6450    -0.7310     1.1340 hc         1 HYC       0.043200
     62 H121         9.9770    -1.7380     2.6890 hc         1 HYC       0.043700
     63 H122        10.0930    -2.5960     1.1640 hc         1 HYC       0.043700
     64 H14          8.3850    -2.1850    -0.6940 hc         1 HYC       0.042700
     65 H151         5.9910    -0.4080     0.1070 hc         1 HYC       0.045700
     66 H152         6.0730    -1.5330    -1.2370 hc         1 HYC       0.045700
     67 H161         5.9220    -3.4510     0.1270 hc         1 HYC       0.042700
     68 H17          7.9430    -3.6270     1.1420 h1         1 HYC       0.024700
     69 HO7          6.6240    -3.9170     2.9780 ho         1 HYC       0.441000
     70 H181         8.1900     0.6730     2.0020 hc         1 HYC       0.037367
     71 H182         6.6530    -0.1380     2.2440 hc         1 HYC       0.037367
     72 H183         7.9890    -0.4580     3.3330 hc         1 HYC       0.037367
     73 H211         4.5710    -3.2400     2.1550 hc         1 HYC       0.043200
     74 H212         4.8170    -1.5040     2.1910 hc         1 HYC       0.043200
     75 H221         3.6260    -1.2920    -0.0090 hc         1 HYC       0.037200
     76 H222         3.4160    -3.0420    -0.0610 hc         1 HYC       0.037200
     77 H231         2.0500    -2.9370     2.0440 hc         1 HYC       0.038700
     78 H232         2.2710    -1.1880     2.1010 hc         1 HYC       0.038700
     79 H241         1.0830    -0.9660    -0.1020 hc         1 HYC       0.037700
     80 H242         0.8620    -2.7150    -0.1600 hc         1 HYC       0.037700
     81 H251        -0.5050    -2.6120     1.9460 hc         1 HYC       0.039700
     82 H252        -0.2830    -0.8630     2.0050 hc         1 HYC       0.039700
     83 H261        -1.4690    -0.6390    -0.1990 hc         1 HYC       0.039200
     84 H262        -1.6910    -2.3880    -0.2580 hc         1 HYC       0.039200
     85 H271        -3.0590    -2.2860     1.8490 hc         1 HYC       0.054200
     86 H272        -2.8370    -0.5370     1.9090 hc         1 HYC       0.054200
     87 H281        -4.0110    -0.2870    -0.2590 hc         1 HYC       0.075700
     88 H282        -4.2630    -2.0710    -0.3380 hc         1 HYC       0.075700
     89 H32         -9.8070     1.3230     1.5460 h1         1 HYC       0.054700
     90 HO21       -11.2110     2.9660     0.9640 ho         1 HYC       0.516000
     91 H33         -8.8120     1.9130     3.6320 h1         1 HYC       0.057700
     92 HO31        -9.3570     4.2450     2.7590 ho         1 HYC       0.525000
     93 H34         -6.2890     2.5000     2.8040 h1         1 HYC       0.106700
     94 H351        -7.8200     0.0870     1.6660 h1         1 HYC       0.051700
     95 H352        -6.8610     0.1460     3.1580 h1         1 HYC       0.051700
     96 H42        -12.6780     0.2670    -1.6700 h5         1 HYC       0.047100
     97 HN41        -8.4860    -1.6540    -4.1510 hn         1 HYC       0.507000
     98 HN42       -10.1250    -2.0410    -4.5450 hn         1 HYC       0.507000
     99 H48         -6.2970     1.3170    -1.0930 h5         1 HYC       0.066800
    100 H31         -8.6940     3.4850    -0.2120 h2         1 HYC       0.124700
@<TRIPOS>BOND
     1     1     2 ar  
     2     1    11 ar  
     3     1    50 1   
     4     2     3 ar  
     5     2    51 1   
     6     3     4 1   
     7     3     5 ar  
     8     4    52 1   
     9     5     6 ar  
    10     5    53 1   
    11     6     7 1   
    12     6    11 ar  
    13     7     8 1   
    14     7    54 1   
    15     7    55 1   
    16     8     9 1   
    17     8    56 1   
    18     8    57 1   
    19     9    10 1   
    20     9    15 1   
    21     9    58 1   
    22    10    11 1   
    23    10    12 1   
    24    10    59 1   
    25    12    13 1   
    26    12    60 1   
    27    12    61 1   
    28    13    14 1   
    29    13    62 1   
    30    13    63 1   
    31    14    15 1   
    32    14    18 1   
    33    14    20 1   
    34    15    16 1   
    35    15    64 1   
    36    16    17 1   
    37    16    65 1   
    38    16    66 1   
    39    17    18 1   
    40    17    21 1   
    41    17    67 1   
    42    18    19 1   
    43    18    68 1   
    44    19    69 1   
    45    20    70 1   
    46    20    71 1   
    47    20    72 1   
    48    21    22 1   
    49    21    73 1   
    50    21    74 1   
    51    22    23 1   
    52    22    75 1   
    53    22    76 1   
    54    23    24 1   
    55    23    77 1   
    56    23    78 1   
    57    24    25 1   
    58    24    79 1   
    59    24    80 1   
    60    25    26 1   
    61    25    81 1   
    62    25    82 1   
    63    26    27 1   
    64    26    83 1   
    65    26    84 1   
    66    27    28 1   
    67    27    85 1   
    68    27    86 1   
    69    28    38 1   
    70    28    87 1   
    71    28    88 1   
    72    29    30 1   
    73    29    35 1   
    74    29    49 1   
    75    29   100 1   
    76    30    31 1   
    77    30    32 1   
    78    30    89 1   
    79    31    90 1   
    80    32    33 1   
    81    32    34 1   
    82    32    91 1   
    83    33    92 1   
    84    34    35 1   
    85    34    36 1   
    86    34    93 1   
    87    36    37 1   
    88    36    94 1   
    89    36    95 1   
    90    37    38 1   
    91    38    39 2   
    92    40    41 ar  
    93    40    45 ar  
    94    41    42 ar  
    95    41    96 1   
    96    42    43 ar  
    97    43    44 ar  
    98    43    49 1   
    99    44    45 ar  
   100    44    47 1   
   101    45    46 1   
   102    46    97 1   
   103    46    98 1   
   104    47    48 2   
   105    48    49 1   
   106    48    99 1   
@<TRIPOS>SUBSTRUCTURE
     1 HYC         1 TEMP              0 ****  ****    0 ROOT
