@<TRIPOS>MOLECULE
HYE
   44    45     1     0     0
SMALL
bcc


@<TRIPOS>ATOM
      1 C1           4.2970     1.2990     0.7320 c3         1 HYE       0.137400
      2 C2           3.6320     0.0240     0.2430 c3         1 HYE      -0.061400
      3 C3           2.1120     0.1530     0.2140 c5         1 HYE      -0.180700
      4 C4           1.3410    -1.1760     0.2440 c5         1 HYE       0.179800
      5 C6           1.2360    -1.8050     1.6180 c3         1 HYE      -0.122100
      6 O21          5.6930     1.0900     0.7640 oh         1 HYE      -0.602800
      7 C19          1.5710     0.8250    -1.0320 c          1 HYE       0.719500
      8 O20          2.0920     1.7230    -1.6650 o          1 HYE      -0.620500
      9 N18          0.3890     0.2450    -1.3280 ns         1 HYE      -0.581900
     10 C7          -0.0270    -0.8090    -0.4350 c5         1 HYE      -0.022600
     11 C16         -0.4830    -2.0310    -1.2200 c          1 HYE       0.599900
     12 O17         -1.0460    -2.9660    -0.7120 o          1 HYE      -0.512100
     13 C8          -1.1300    -0.3680     0.5590 c3         1 HYE       0.152100
     14 O15         -0.6960     0.6980     1.3630 oh         1 HYE      -0.594800
     15 C9          -2.5090    -0.0680    -0.0740 c6         1 HYE      -0.053500
     16 C14         -3.5940    -0.2530     0.9920 c6         1 HYE      -0.073400
     17 C13         -4.9400     0.2900     0.5330 c6         1 HYE      -0.072400
     18 C12         -4.8520     1.7890     0.2760 c6         1 HYE      -0.049200
     19 C11         -3.6240     2.1360    -0.5040 c2         1 HYE      -0.140200
     20 C10         -2.5930     1.3110    -0.6780 c2         1 HYE      -0.202200
     21 O5           1.9310    -2.0820    -0.6750 oh         1 HYE      -0.609800
     22 H1           4.0310     2.1320     0.0710 h1         1 HYE       0.027200
     23 H1A          3.9050     1.5420     1.7290 h1         1 HYE       0.027200
     24 H2           4.0210    -0.2400    -0.7440 hc         1 HYE       0.058700
     25 H2A          3.9130    -0.7850     0.9230 hc         1 HYE       0.058700
     26 H3           1.7890     0.7530     1.0710 hc         1 HYE       0.094700
     27 H6           0.8150    -1.1200     2.3510 hc         1 HYE       0.057033
     28 H6A          0.6270    -2.7090     1.5950 hc         1 HYE       0.057033
     29 H6B          2.2300    -2.0880     1.9740 hc         1 HYE       0.057033
     30 HO21         6.1100     1.9060     1.0540 ho         1 HYE       0.406000
     31 HN18        -0.1510     0.5410    -2.1280 hn         1 HYE       0.329500
     32 H16         -0.2720    -1.9990    -2.3040 h4         1 HYE       0.010200
     33 H8          -1.2760    -1.2130     1.2380 h1         1 HYE       0.091700
     34 HO15        -0.8040     1.5240     0.8780 ho         1 HYE       0.415000
     35 H9          -2.6910    -0.8020    -0.8680 hc         1 HYE       0.062700
     36 H14         -3.6760    -1.3130     1.2410 hc         1 HYE       0.050700
     37 H14A        -3.2910     0.2650     1.9070 hc         1 HYE       0.050700
     38 H13         -5.2440    -0.2210    -0.3850 hc         1 HYE       0.044200
     39 H13A        -5.7080     0.0780     1.2790 hc         1 HYE       0.044200
     40 H12         -5.7370     2.1420    -0.2610 hc         1 HYE       0.051200
     41 H12A        -4.8480     2.3410     1.2230 hc         1 HYE       0.051200
     42 H11         -3.5900     3.1170    -0.9680 ha         1 HYE       0.123000
     43 H10         -1.7760     1.6560    -1.3040 ha         1 HYE       0.119000
     44 HO5          2.7320    -2.4500    -0.2870 ho         1 HYE       0.420000
@<TRIPOS>BOND
     1     1     2 1   
     2     1     6 1   
     3     1    22 1   
     4     1    23 1   
     5     2     3 1   
     6     2    24 1   
     7     2    25 1   
     8     3     4 1   
     9     3     7 1   
    10     3    26 1   
    11     4     5 1   
    12     4    10 1   
    13     4    21 1   
    14     5    27 1   
    15     5    28 1   
    16     5    29 1   
    17     6    30 1   
    18     7     8 2   
    19     7     9 1   
    20     9    10 1   
    21     9    31 1   
    22    10    11 1   
    23    10    13 1   
    24    11    12 2   
    25    11    32 1   
    26    13    14 1   
    27    13    15 1   
    28    13    33 1   
    29    14    34 1   
    30    15    16 1   
    31    15    20 1   
    32    15    35 1   
    33    16    17 1   
    34    16    36 1   
    35    16    37 1   
    36    17    18 1   
    37    17    38 1   
    38    17    39 1   
    39    18    19 1   
    40    18    40 1   
    41    18    41 1   
    42    19    20 2   
    43    19    42 1   
    44    20    43 1   
    45    21    44 1   
@<TRIPOS>SUBSTRUCTURE
     1 HYE         1 TEMP              0 ****  ****    0 ROOT
