@<TRIPOS>MOLECULE
HYE
   44    45     1     0     0
SMALL
No Charge or Current Charge


@<TRIPOS>ATOM
      1 C1           4.3370     1.4380     0.5820 c3         1 HYE       0.160600
      2 C2           3.6780     0.0660     0.3120 c3         1 HYE      -0.061400
      3 C3           2.1180     0.0920     0.2420 c5         1 HYE      -0.180700
      4 C4           1.3930    -1.2920     0.2330 c5         1 HYE       0.203000
      5 C6           1.3280    -1.9820     1.6180 c3         1 HYE      -0.122100
      6 O21          5.7550     1.2760     0.7030 oh         1 HYE      -0.665000
      7 C19          1.5400     0.8100    -0.9880 c          1 HYE       0.577000
      8 O20          2.0390     1.6780    -1.6840 o          1 HYE      -0.545000
      9 N18          0.4040     0.1370    -1.3500 ns         1 HYE      -0.514900
     10 C7          -0.0200    -0.9220    -0.4020 c5         1 HYE      -0.022600
     11 C16         -0.4850    -2.1380    -1.2720 c          1 HYE       0.599900
     12 O17         -1.4040    -2.9110    -1.0100 o          1 HYE      -0.512100
     13 C8          -1.1720    -0.4640     0.5810 c3         1 HYE       0.175300
     14 O15         -0.7320     0.6050     1.4300 oh         1 HYE      -0.657000
     15 C9          -2.5540    -0.0380    -0.0380 c6         1 HYE      -0.053500
     16 C14         -3.7100    -0.2380     0.9860 c6         1 HYE      -0.073400
     17 C13         -5.0270     0.3800     0.4670 c6         1 HYE      -0.072400
     18 C12         -4.8690     1.9060     0.2680 c6         1 HYE      -0.049200
     19 C11         -3.5630     2.2620    -0.4280 c2         1 HYE      -0.190200
     20 C10         -2.5350     1.4060    -0.5650 c2         1 HYE      -0.252200
     21 O5           2.1120    -2.2030    -0.6000 oh         1 HYE      -0.672000
     22 H1           4.1060     2.1320    -0.2360 h1         1 HYE       0.027200
     23 H1A          3.9240     1.8600     1.5080 h1         1 HYE       0.027200
     24 H2           4.0900    -0.3370    -0.6220 hc         1 HYE       0.058700
     25 H2A          3.9930    -0.6150     1.1120 hc         1 HYE       0.058700
     26 H3           1.7710     0.6530     1.1140 hc         1 HYE       0.094700
     27 H6           0.8770    -1.3320     2.3770 hc         1 HYE       0.057033
     28 H6A          0.7330    -2.9030     1.5750 hc         1 HYE       0.057033
     29 H6B          2.3260    -2.2510     1.9840 hc         1 HYE       0.057033
     30 HO21         6.1320     2.1680     0.8720 ho         1 HYE       0.445000
     31 HN18        -0.0780     0.4230    -2.1950 hn         1 HYE       0.329500
     32 H16          0.0780    -2.2640    -2.2240 h4         1 HYE       0.010200
     33 H8          -1.3830    -1.3450     1.2050 h1         1 HYE       0.091700
     34 HO15        -1.3020     1.3690     1.1930 ho         1 HYE       0.454000
     35 H9          -2.7550    -0.6960    -0.8920 hc         1 HYE       0.062700
     36 H14         -3.8540    -1.3090     1.1820 hc         1 HYE       0.050700
     37 H14A        -3.4510     0.2230     1.9500 hc         1 HYE       0.050700
     38 H13         -5.3030    -0.0920    -0.4860 hc         1 HYE       0.044200
     39 H13A        -5.8470     0.1760     1.1680 hc         1 HYE       0.044200
     40 H12         -5.7190     2.2880    -0.3140 hc         1 HYE       0.051200
     41 H12A        -4.9070     2.4140     1.2420 hc         1 HYE       0.051200
     42 H11         -3.4970     3.2760    -0.8320 ha         1 HYE       0.173000
     43 H10         -1.6380     1.7320    -1.0930 ha         1 HYE       0.169000
     44 HO5          2.9800    -2.3570    -0.1710 ho         1 HYE       0.459000
@<TRIPOS>BOND
     1     1     2 1   
     2     1     6 1   
     3     1    22 1   
     4     1    23 1   
     5     2     3 1   
     6     2    24 1   
     7     2    25 1   
     8     3     4 1   
     9     3     7 1   
    10     3    26 1   
    11     4     5 1   
    12     4    10 1   
    13     4    21 1   
    14     5    27 1   
    15     5    28 1   
    16     5    29 1   
    17     6    30 1   
    18     7     8 2   
    19     7     9 1   
    20     9    10 1   
    21     9    31 1   
    22    10    11 1   
    23    10    13 1   
    24    11    12 2   
    25    11    32 1   
    26    13    14 1   
    27    13    15 1   
    28    13    33 1   
    29    14    34 1   
    30    15    16 1   
    31    15    20 1   
    32    15    35 1   
    33    16    17 1   
    34    16    36 1   
    35    16    37 1   
    36    17    18 1   
    37    17    38 1   
    38    17    39 1   
    39    18    19 1   
    40    18    40 1   
    41    18    41 1   
    42    19    20 2   
    43    19    42 1   
    44    20    43 1   
    45    21    44 1   
@<TRIPOS>SUBSTRUCTURE
     1 HYE         1 TEMP              0 ****  ****    0 ROOT
