@<TRIPOS>MOLECULE
HYF
   91    92     1     0     0
SMALL
bcc


@<TRIPOS>ATOM
      1 C1           0.9110    -0.4300    -5.9790 c2         1 HYF      -0.108400
      2 C2          -4.8190    -3.1560    -1.3440 c3         1 HYF      -0.059900
      3 C3          -4.2680    -1.7240     0.6510 c3         1 HYF      -0.059900
      4 C4           4.7400     1.2920     1.3130 c3         1 HYF      -0.083600
      5 C5           3.3790     1.7500     0.7800 c3         1 HYF      -0.150700
      6 C6           3.5430     3.1480     0.1720 c3         1 HYF      -0.083600
      7 C7           2.8620     0.7580    -0.2610 c          1 HYF       0.611100
      8 O8           3.5310     0.5070    -1.2290 o          1 HYF      -0.498100
      9 C10         -3.8620    -2.1830    -0.7170 c2         1 HYF      -0.107400
     10 C11         -1.7020    -0.8380    -0.9080 c3         1 HYF      -0.040200
     11 C12          1.9960    -2.0910    -1.2440 c3         1 HYF      -0.102100
     12 C13          1.0200     0.2180     6.4450 c3         1 HYF      -0.056400
     13 C14         -1.0550    -1.0670     5.8190 c3         1 HYF      -0.056400
     14 C15          0.3340    -0.6560     5.4340 c2         1 HYF      -0.092400
     15 C16          0.9560    -1.0010     4.3030 c2         1 HYF      -0.187200
     16 C17          0.4280    -1.8600     3.1960 c3         1 HYF      -0.008200
     17 C18          1.5840    -0.6960     1.2760 c          1 HYF       0.602100
     18 O19          2.6550    -1.0270     1.7210 o          1 HYF      -0.499100
     19 O21          0.6520     2.1760    -0.6990 oh         1 HYF      -0.487100
     20 C22         -4.3850     2.4690    -1.0560 c3         1 HYF      -0.058400
     21 C23         -2.3450     3.9520    -1.1250 c3         1 HYF      -0.058400
     22 C24         -3.0840     2.8550    -0.4160 c2         1 HYF      -0.120400
     23 C25         -2.6540     2.2320     0.6830 c2         1 HYF      -0.171200
     24 C26         -1.3520     2.4370     1.4050 c3         1 HYF       0.021000
     25 C27          1.4720     0.0940    -0.0170 c6         1 HYF      -0.214800
     26 C28          0.4880     1.2140     0.2050 c2         1 HYF       0.190900
     27 C29         -0.4150     1.2680     1.2080 ce         1 HYF      -0.332400
     28 C30         -0.6510     0.0790     2.0160 c          1 HYF       0.614300
     29 C31          0.2690    -1.1270     1.8540 c6         1 HYF      -0.243000
     30 C32         -0.3080    -2.1100     0.7940 c6         1 HYF      -0.060400
     31 C33         -0.3740    -1.5940    -0.6490 c6         1 HYF      -0.063700
     32 C34          0.9720    -0.9440    -1.1160 c6         1 HYF       0.011000
     33 C35          0.8210    -0.2780    -2.4980 c3         1 HYF      -0.071400
     34 C36          0.3640    -1.2190    -3.6220 c3         1 HYF      -0.038200
     35 C37          0.1420    -0.4490    -4.8870 c2         1 HYF      -0.177200
     36 C38          0.5630     0.4380    -7.1530 c3         1 HYF      -0.056400
     37 C39          2.1690    -1.2290    -6.1540 c3         1 HYF      -0.056400
     38 H021        -4.9400    -4.0460    -0.7220 hc         1 HYF       0.041033
     39 H022        -5.8130    -2.7130    -1.4460 hc         1 HYF       0.041033
     40 H023        -4.4920    -3.4760    -2.3330 hc         1 HYF       0.041033
     41 H031        -3.5630    -1.0410     1.1200 hc         1 HYF       0.041033
     42 H032        -5.2410    -1.2270     0.6150 hc         1 HYF       0.041033
     43 H033        -4.3860    -2.5810     1.3180 hc         1 HYF       0.041033
     44 H041         5.0770     1.9840     2.0850 hc         1 HYF       0.043200
     45 H042         4.7060     0.2960     1.7480 hc         1 HYF       0.043200
     46 H043         5.4860     1.2940     0.5180 hc         1 HYF       0.043200
     47 H051         2.6750     1.8150     1.6140 hc         1 HYF       0.057700
     48 H061         4.2250     3.1230    -0.6790 hc         1 HYF       0.043200
     49 H062         2.6030     3.5840    -0.1570 hc         1 HYF       0.043200
     50 H063         3.9720     3.8130     0.9210 hc         1 HYF       0.043200
     51 H091        -2.5930    -2.2220    -2.3540 ha         1 HYF       0.114000
     52 H111        -2.0450    -0.3120    -0.0230 hc         1 HYF       0.055700
     53 H112        -1.5780    -0.0610    -1.6640 hc         1 HYF       0.055700
     54 H121         1.5780    -2.8900    -1.8560 hc         1 HYF       0.047367
     55 H122         2.9150    -1.7640    -1.7230 hc         1 HYF       0.047367
     56 H123         2.2690    -2.5490    -0.2950 hc         1 HYF       0.047367
     57 H131         1.1130    -0.2940     7.4060 hc         1 HYF       0.039867
     58 H132         2.0170     0.5160     6.1220 hc         1 HYF       0.039867
     59 H133         0.4410     1.1260     6.6350 hc         1 HYF       0.039867
     60 H141        -1.5030    -1.7860     5.1380 hc         1 HYF       0.039867
     61 H142        -1.0570    -1.5020     6.8210 hc         1 HYF       0.039867
     62 H143        -1.7110    -0.1940     5.8560 hc         1 HYF       0.039867
     63 H161         1.9670    -0.6290     4.1640 ha         1 HYF       0.124000
     64 H171        -0.5370    -2.2960     3.4550 hc         1 HYF       0.058200
     65 H172         1.1070    -2.7020     3.0320 hc         1 HYF       0.058200
     66 H211         0.0410     2.9120    -0.5660 ho         1 HYF       0.443000
     67 H221        -5.0680     3.3210    -1.1030 hc         1 HYF       0.039867
     68 H222        -4.2280     2.1390    -2.0860 hc         1 HYF       0.039867
     69 H223        -4.8840     1.6630    -0.5180 hc         1 HYF       0.039867
     70 H231        -1.5360     4.3860    -0.5390 hc         1 HYF       0.039867
     71 H232        -1.9340     3.5990    -2.0750 hc         1 HYF       0.039867
     72 H233        -3.0220     4.7730    -1.3720 hc         1 HYF       0.039867
     73 H251        -3.2860     1.4550     1.1020 ha         1 HYF       0.134000
     74 H261        -1.5410     2.5390     2.4760 hc         1 HYF       0.054200
     75 H262        -0.8750     3.3780     1.1180 hc         1 HYF       0.054200
     76 H321         0.3170    -3.0050     0.8340 hc         1 HYF       0.059700
     77 H322        -1.3030    -2.4220     1.1210 hc         1 HYF       0.059700
     78 H331        -0.4420    -2.5000    -1.2580 hc         1 HYF       0.058700
     79 H351         0.1270     0.5600    -2.4590 hc         1 HYF       0.058700
     80 H352         1.7790     0.1470    -2.7950 hc         1 HYF       0.058700
     81 H361         1.0970    -2.0100    -3.7720 hc         1 HYF       0.044700
     82 H362        -0.5710    -1.7140    -3.3450 hc         1 HYF       0.044700
     83 H371        -0.7380     0.1920    -4.8830 ha         1 HYF       0.113000
     84 H381         0.4650    -0.1560    -8.0660 hc         1 HYF       0.039033
     85 H382        -0.3690     0.9820    -7.0010 hc         1 HYF       0.039033
     86 H383         1.3530     1.1700    -7.3440 hc         1 HYF       0.039033
     87 H391         2.3840    -1.9000    -5.3250 hc         1 HYF       0.039033
     88 H392         2.1170    -1.8310    -7.0650 hc         1 HYF       0.039033
     89 H393         3.0300    -0.5650    -6.2740 hc         1 HYF       0.039033
     90 C9          -2.7640    -1.7910    -1.3680 c2         1 HYF      -0.183200
     91 O20         -1.5960     0.0150     2.7800 o          1 HYF      -0.528100
@<TRIPOS>BOND
     1     1    35 2   
     2     1    36 1   
     3     1    37 1   
     4     2     9 1   
     5     2    38 1   
     6     2    39 1   
     7     2    40 1   
     8     3     9 1   
     9     3    41 1   
    10     3    42 1   
    11     3    43 1   
    12     4     5 1   
    13     4    44 1   
    14     4    45 1   
    15     4    46 1   
    16     5     6 1   
    17     5     7 1   
    18     5    47 1   
    19     6    48 1   
    20     6    49 1   
    21     6    50 1   
    22     7     8 2   
    23     7    25 1   
    24     9    90 2   
    25    10    31 1   
    26    10    52 1   
    27    10    53 1   
    28    10    90 1   
    29    11    32 1   
    30    11    54 1   
    31    11    55 1   
    32    11    56 1   
    33    12    14 1   
    34    12    57 1   
    35    12    58 1   
    36    12    59 1   
    37    13    14 1   
    38    13    60 1   
    39    13    61 1   
    40    13    62 1   
    41    14    15 2   
    42    15    16 1   
    43    15    63 1   
    44    16    29 1   
    45    16    64 1   
    46    16    65 1   
    47    17    18 2   
    48    17    25 1   
    49    17    29 1   
    50    19    26 1   
    51    19    66 1   
    52    20    22 1   
    53    20    67 1   
    54    20    68 1   
    55    20    69 1   
    56    21    22 1   
    57    21    70 1   
    58    21    71 1   
    59    21    72 1   
    60    22    23 2   
    61    23    24 1   
    62    23    73 1   
    63    24    27 1   
    64    24    74 1   
    65    24    75 1   
    66    25    26 1   
    67    25    32 1   
    68    26    27 2   
    69    27    28 1   
    70    28    29 1   
    71    28    91 2   
    72    29    30 1   
    73    30    31 1   
    74    30    76 1   
    75    30    77 1   
    76    31    32 1   
    77    31    78 1   
    78    32    33 1   
    79    33    34 1   
    80    33    79 1   
    81    33    80 1   
    82    34    35 1   
    83    34    81 1   
    84    34    82 1   
    85    35    83 1   
    86    36    84 1   
    87    36    85 1   
    88    36    86 1   
    89    37    87 1   
    90    37    88 1   
    91    37    89 1   
    92    51    90 1   
@<TRIPOS>SUBSTRUCTURE
     1 HYF         1 TEMP              0 ****  ****    0 ROOT
