@<TRIPOS>MOLECULE
HYF
   91    92     1     0     0
SMALL
No Charge or Current Charge


@<TRIPOS>ATOM
      1 C1           1.3770    -0.5320    -5.9330 c2         1 HYF      -0.108400
      2 C2          -5.1730    -3.2620    -0.3500 c3         1 HYF      -0.059900
      3 C3          -4.2120    -1.4470     1.1070 c3         1 HYF      -0.059900
      4 C4           3.9320     2.5800     0.8840 c3         1 HYF      -0.083600
      5 C5           2.7390     2.3380    -0.0750 c3         1 HYF      -0.150700
      6 C6           2.9010     3.1600    -1.3780 c3         1 HYF      -0.083600
      7 C7           2.5610     0.8190    -0.4040 c          1 HYF       0.611100
      8 O8           3.5450     0.2100    -0.8080 o          1 HYF      -0.498100
      9 C10         -4.0590    -2.2460    -0.1790 c2         1 HYF      -0.107400
     10 C11         -1.9130    -1.1200    -1.0820 c3         1 HYF      -0.040200
     11 C12          1.9130    -2.2220    -1.1570 c3         1 HYF      -0.102100
     12 C13          1.2720    -0.7570     6.7760 c3         1 HYF      -0.056400
     13 C14         -0.8820    -1.7940     5.9890 c3         1 HYF      -0.056400
     14 C15          0.5340    -1.3830     5.6060 c2         1 HYF      -0.092400
     15 C16          1.1140    -1.5420     4.3990 c2         1 HYF      -0.237200
     16 C17          0.5420    -2.1990     3.1420 c3         1 HYF      -0.008200
     17 C18          1.4390    -0.5890     1.3140 c          1 HYF       0.602100
     18 O19          2.3960    -0.3040     2.0190 o          1 HYF      -0.499100
     19 O21         -0.1070     1.8980    -0.8570 oh         1 HYF      -0.526100
     20 C22         -3.3330     3.9650    -1.7590 c3         1 HYF      -0.058400
     21 C23         -1.5730     4.7180    -0.1180 c3         1 HYF      -0.058400
     22 C24         -2.5320     3.6060    -0.5210 c2         1 HYF      -0.120400
     23 C25         -2.6870     2.4280     0.1150 c2         1 HYF      -0.221200
     24 C26         -1.9960     1.9470     1.3820 c3         1 HYF       0.021000
     25 C27          1.2320     0.0510    -0.0610 c6         1 HYF      -0.214800
     26 C28          0.0460     1.0180     0.1340 c2         1 HYF       0.190900
     27 C29         -0.8180     0.9760     1.1810 ce         1 HYF      -0.332400
     28 C30         -0.6560    -0.0730     2.2460 c          1 HYF       0.614300
     29 C31          0.2020    -1.3010     1.8780 c6         1 HYF      -0.243000
     30 C32         -0.4770    -2.2390     0.7990 c6         1 HYF      -0.060400
     31 C33         -0.5380    -1.7790    -0.6920 c6         1 HYF      -0.063700
     32 C34          0.8160    -1.0790    -1.1280 c6         1 HYF       0.011000
     33 C35          0.7650    -0.5240    -2.6130 c3         1 HYF      -0.071400
     34 C36          0.4570    -1.5310    -3.7540 c3         1 HYF      -0.038200
     35 C37          0.3640    -0.8390    -5.1010 c2         1 HYF      -0.227200
     36 C38          1.1520     0.1500    -7.2700 c3         1 HYF      -0.056400
     37 C39          2.8500    -0.8060    -5.6670 c3         1 HYF      -0.056400
     38 H021        -5.1810    -3.9830     0.4760 hc         1 HYF       0.041033
     39 H022        -6.1540    -2.7730    -0.3780 hc         1 HYF       0.041033
     40 H023        -5.0650    -3.8330    -1.2810 hc         1 HYF       0.041033
     41 H031        -3.3710    -0.7770     1.2980 hc         1 HYF       0.041033
     42 H032        -5.1210    -0.8350     1.0840 hc         1 HYF       0.041033
     43 H033        -4.2830    -2.1140     1.9750 hc         1 HYF       0.041033
     44 H041         4.0200     3.6450     1.1300 hc         1 HYF       0.043200
     45 H042         3.7960     2.0300     1.8220 hc         1 HYF       0.043200
     46 H043         4.8770     2.2570     0.4310 hc         1 HYF       0.043200
     47 H051         1.8550     2.7280     0.4380 hc         1 HYF       0.057700
     48 H061         3.8160     2.8720    -1.9110 hc         1 HYF       0.043200
     49 H062         2.0530     2.9980    -2.0540 hc         1 HYF       0.043200
     50 H063         2.9570     4.2320    -1.1560 hc         1 HYF       0.043200
     51 H091        -3.0750    -2.7440    -1.9730 ha         1 HYF       0.164000
     52 H111        -2.1630    -0.2800    -0.4440 hc         1 HYF       0.055700
     53 H112        -1.8650    -0.6880    -2.0860 hc         1 HYF       0.055700
     54 H121         1.5450    -3.1340    -1.6430 hc         1 HYF       0.047367
     55 H122         2.8070    -1.9380    -1.7230 hc         1 HYF       0.047367
     56 H123         2.2480    -2.5300    -0.1610 hc         1 HYF       0.047367
     57 H131         1.3410    -1.4560     7.6190 hc         1 HYF       0.039867
     58 H132         2.2950    -0.4670     6.5060 hc         1 HYF       0.039867
     59 H133         0.7590     0.1450     7.1300 hc         1 HYF       0.039867
     60 H141        -1.4650    -2.1840     5.1490 hc         1 HYF       0.039867
     61 H142        -0.8680    -2.5700     6.7640 hc         1 HYF       0.039867
     62 H143        -1.4410    -0.9390     6.3880 hc         1 HYF       0.039867
     63 H161         2.1500    -1.2240     4.2830 ha         1 HYF       0.174000
     64 H171        -0.3530    -2.7740     3.4040 hc         1 HYF       0.058200
     65 H172         1.2600    -2.9690     2.8310 hc         1 HYF       0.058200
     66 H211        -0.9360     2.3850    -0.6520 ho         1 HYF       0.482000
     67 H221        -3.9290     4.8710    -1.5940 hc         1 HYF       0.039867
     68 H222        -2.6750     4.1490    -2.6170 hc         1 HYF       0.039867
     69 H223        -4.0260     3.1640    -2.0440 hc         1 HYF       0.039867
     70 H231        -0.9260     4.4470     0.7230 hc         1 HYF       0.039867
     71 H232        -0.9120     4.9870    -0.9510 hc         1 HYF       0.039867
     72 H233        -2.1230     5.6220     0.1720 hc         1 HYF       0.039867
     73 H251        -3.4220     1.7120    -0.2620 ha         1 HYF       0.184000
     74 H261        -2.7690     1.4820     2.0080 hc         1 HYF       0.054200
     75 H262        -1.6540     2.7990     1.9800 hc         1 HYF       0.054200
     76 H321         0.0670    -3.1950     0.8000 hc         1 HYF       0.059700
     77 H322        -1.4810    -2.5170     1.1460 hc         1 HYF       0.059700
     78 H331        -0.5950    -2.7110    -1.2720 hc         1 HYF       0.058700
     79 H351         0.0280     0.2770    -2.7030 hc         1 HYF       0.058700
     80 H352         1.7200    -0.0460    -2.8570 hc         1 HYF       0.058700
     81 H361         1.2270    -2.3100    -3.7900 hc         1 HYF       0.044700
     82 H362        -0.4850    -2.0530    -3.5520 hc         1 HYF       0.044700
     83 H371        -0.6600    -0.5930    -5.3870 ha         1 HYF       0.163000
     84 H381         1.5200    -0.4700    -8.0970 hc         1 HYF       0.039033
     85 H382         0.0880     0.3440    -7.4540 hc         1 HYF       0.039033
     86 H383         1.6730     1.1130    -7.3150 hc         1 HYF       0.039033
     87 H391         3.0300    -1.2610    -4.6870 hc         1 HYF       0.039033
     88 H392         3.2650    -1.4850    -6.4220 hc         1 HYF       0.039033
     89 H393         3.4320     0.1220    -5.6990 hc         1 HYF       0.039033
     90 C9          -3.0740    -2.1050    -1.0870 c2         1 HYF      -0.233200
     91 O20         -1.1270     0.0930     3.3620 o          1 HYF      -0.528100
@<TRIPOS>BOND
     1     1    35 2   
     2     1    36 1   
     3     1    37 1   
     4     2     9 1   
     5     2    38 1   
     6     2    39 1   
     7     2    40 1   
     8     3     9 1   
     9     3    41 1   
    10     3    42 1   
    11     3    43 1   
    12     4     5 1   
    13     4    44 1   
    14     4    45 1   
    15     4    46 1   
    16     5     6 1   
    17     5     7 1   
    18     5    47 1   
    19     6    48 1   
    20     6    49 1   
    21     6    50 1   
    22     7     8 2   
    23     7    25 1   
    24     9    90 2   
    25    10    31 1   
    26    10    52 1   
    27    10    53 1   
    28    10    90 1   
    29    11    32 1   
    30    11    54 1   
    31    11    55 1   
    32    11    56 1   
    33    12    14 1   
    34    12    57 1   
    35    12    58 1   
    36    12    59 1   
    37    13    14 1   
    38    13    60 1   
    39    13    61 1   
    40    13    62 1   
    41    14    15 2   
    42    15    16 1   
    43    15    63 1   
    44    16    29 1   
    45    16    64 1   
    46    16    65 1   
    47    17    18 2   
    48    17    25 1   
    49    17    29 1   
    50    19    26 1   
    51    19    66 1   
    52    20    22 1   
    53    20    67 1   
    54    20    68 1   
    55    20    69 1   
    56    21    22 1   
    57    21    70 1   
    58    21    71 1   
    59    21    72 1   
    60    22    23 2   
    61    23    24 1   
    62    23    73 1   
    63    24    27 1   
    64    24    74 1   
    65    24    75 1   
    66    25    26 1   
    67    25    32 1   
    68    26    27 2   
    69    27    28 1   
    70    28    29 1   
    71    28    91 2   
    72    29    30 1   
    73    30    31 1   
    74    30    76 1   
    75    30    77 1   
    76    31    32 1   
    77    31    78 1   
    78    32    33 1   
    79    33    34 1   
    80    33    79 1   
    81    33    80 1   
    82    34    35 1   
    83    34    81 1   
    84    34    82 1   
    85    35    83 1   
    86    36    84 1   
    87    36    85 1   
    88    36    86 1   
    89    37    87 1   
    90    37    88 1   
    91    37    89 1   
    92    51    90 1   
@<TRIPOS>SUBSTRUCTURE
     1 HYF         1 TEMP              0 ****  ****    0 ROOT
