@<TRIPOS>MOLECULE
HYH
   22    21     1     0     0
SMALL
abcg2


@<TRIPOS>ATOM
      1 O1          -2.7140     0.3990    -0.9540 o          1 HYH      -0.611100
      2 C5          -2.1090    -0.2480    -0.1090 c          1 HYH       0.569100
      3 N           -2.4900    -1.4550     0.3180 nt         1 HYH      -0.599000
      4 C4          -0.8090     0.2900     0.4850 c3         1 HYH       0.094300
      5 O           -0.7960     1.6880     0.4120 oh         1 HYH      -0.643000
      6 C3           0.3760    -0.3540    -0.2440 c3         1 HYH      -0.104400
      7 C2           1.7280     0.1310     0.2610 c3         1 HYH      -0.071400
      8 C1           2.8910    -0.5620    -0.4390 c3         1 HYH      -0.076400
      9 C            4.2470    -0.0770     0.0520 c3         1 HYH      -0.088100
     10 H1          -3.2930    -1.9140    -0.0820 hn         1 HYH       0.317000
     11 H2          -1.9810    -1.9530     1.0290 hn         1 HYH       0.317000
     12 H3          -0.7530     0.0240     1.5460 h1         1 HYH       0.073700
     13 H4          -1.1880     1.9360    -0.4350 ho         1 HYH       0.467000
     14 H5           0.3150    -1.4400    -0.1240 hc         1 HYH       0.045700
     15 H6           0.2890    -0.1590    -1.3190 hc         1 HYH       0.045700
     16 H7           1.8110     1.2120     0.1180 hc         1 HYH       0.047700
     17 H8           1.7990    -0.0440     1.3400 hc         1 HYH       0.047700
     18 H9           2.8120    -1.6430    -0.2900 hc         1 HYH       0.035700
     19 H10          2.8120    -0.4000    -1.5180 hc         1 HYH       0.035700
     20 H11          4.3680     0.9950    -0.1170 hc         1 HYH       0.032700
     21 H12          4.3660    -0.2540     1.1230 hc         1 HYH       0.032700
     22 H13          5.0650    -0.5860    -0.4590 hc         1 HYH       0.032700
@<TRIPOS>BOND
     1     1     2 2   
     2     2     3 1   
     3     2     4 1   
     4     3    10 1   
     5     3    11 1   
     6     4     5 1   
     7     4     6 1   
     8     4    12 1   
     9     5    13 1   
    10     6     7 1   
    11     6    14 1   
    12     6    15 1   
    13     7     8 1   
    14     7    16 1   
    15     7    17 1   
    16     8     9 1   
    17     8    18 1   
    18     8    19 1   
    19     9    20 1   
    20     9    21 1   
    21     9    22 1   
@<TRIPOS>SUBSTRUCTURE
     1 HYH         1 TEMP              0 ****  ****    0 ROOT
