@<TRIPOS>MOLECULE
HYH
   22    21     1     0     0
SMALL
No Charge or Current Charge


@<TRIPOS>ATOM
      1 O1          -3.0810     0.4330    -0.5640 o          1 HYH      -0.611100
      2 C5          -2.2030    -0.2260    -0.0260 c          1 HYH       0.569100
      3 N           -2.4060    -1.5400     0.2280 nt         1 HYH      -0.599000
      4 C4          -0.8280     0.3880     0.3990 c3         1 HYH       0.094300
      5 O           -0.7800     1.8060     0.1090 oh         1 HYH      -0.643000
      6 C3           0.3800    -0.3200    -0.2760 c3         1 HYH      -0.104400
      7 C2           1.7590     0.1470     0.2500 c3         1 HYH      -0.071400
      8 C1           2.9400    -0.6030    -0.4060 c3         1 HYH      -0.076400
      9 C            4.3140    -0.1400     0.1150 c3         1 HYH      -0.088100
     10 H1          -3.2840    -1.9630    -0.0340 hn         1 HYH       0.317000
     11 H2          -1.6880    -2.0900     0.6770 hn         1 HYH       0.317000
     12 H3          -0.7500     0.2270     1.4840 h1         1 HYH       0.073700
     13 H4          -1.6480     2.0230    -0.3080 ho         1 HYH       0.467000
     14 H5           0.3010    -1.4020    -0.1140 hc         1 HYH       0.045700
     15 H6           0.3300    -0.1610    -1.3610 hc         1 HYH       0.045700
     16 H7           1.8770     1.2230     0.0670 hc         1 HYH       0.047700
     17 H8           1.7990     0.0010     1.3360 hc         1 HYH       0.047700
     18 H9           2.8340    -1.6800    -0.2230 hc         1 HYH       0.035700
     19 H10          2.9040    -0.4590    -1.4930 hc         1 HYH       0.035700
     20 H11          4.4660     0.9270    -0.0860 hc         1 HYH       0.032700
     21 H12          4.3950    -0.3050     1.1960 hc         1 HYH       0.032700
     22 H13          5.1180    -0.7000    -0.3780 hc         1 HYH       0.032700
@<TRIPOS>BOND
     1     1     2 2   
     2     2     3 1   
     3     2     4 1   
     4     3    10 1   
     5     3    11 1   
     6     4     5 1   
     7     4     6 1   
     8     4    12 1   
     9     5    13 1   
    10     6     7 1   
    11     6    14 1   
    12     6    15 1   
    13     7     8 1   
    14     7    16 1   
    15     7    17 1   
    16     8     9 1   
    17     8    18 1   
    18     8    19 1   
    19     9    20 1   
    20     9    21 1   
    21     9    22 1   
@<TRIPOS>SUBSTRUCTURE
     1 HYH         1 TEMP              0 ****  ****    0 ROOT
