@<TRIPOS>MOLECULE
HYI
   32    31     1     0     0
SMALL
No Charge or Current Charge


@<TRIPOS>ATOM
      1 O            6.3080    -0.7330    -0.8770 o          1 HYI      -0.727000
      2 C            5.8450    -0.7070     0.2580 c          1 HYI       0.726000
      3 OXT          6.3370    -1.3270     1.1930 o          1 HYI      -0.727000
      4 CA           4.6010     0.2350     0.5500 c3         1 HYI       0.022500
      5 N            4.8010     1.7080     0.2920 n8         1 HYI      -0.988200
      6 CB           3.3400    -0.2790    -0.1950 c3         1 HYI      -0.096400
      7 CG           2.0150     0.3400     0.2990 c3         1 HYI       0.074600
      8 SD           0.5810    -0.4160    -0.5900 ss         1 HYI      -0.440000
      9 C5          -0.8160     0.4940     0.2280 c3         1 HYI       0.016600
     10 C4          -2.2020     0.0580    -0.3160 c3         1 HYI       0.174300
     11 O4          -2.3340     0.4470    -1.6940 oh         1 HYI      -0.640000
     12 C3          -3.3750     0.6640     0.5090 c3         1 HYI       0.056300
     13 O3          -3.4180     2.1110     0.3330 oh         1 HYI      -0.654000
     14 C2          -4.7340    -0.0120     0.1500 c          1 HYI       0.575100
     15 O2          -5.5800     0.5500    -0.5400 o          1 HYI      -0.582100
     16 N1          -4.9520    -1.2650     0.7190 ns         1 HYI      -0.368400
     17 O1          -6.2700    -1.8700     0.7040 oh         1 HYI      -0.427100
     18 HA           4.3960     0.1320     1.6250 h1         1 HYI       0.042700
     19 HN1A         5.0680     1.8380    -0.6920 hn         1 HYI       0.375500
     20 HN2          3.9040     2.1980     0.3750 hn         1 HYI       0.375500
     21 HB1          3.4480    -0.1040    -1.2720 hc         1 HYI       0.059700
     22 HB2          3.2780    -1.3660    -0.0600 hc         1 HYI       0.059700
     23 HG1          1.9000     0.1620     1.3770 h1         1 HYI       0.045200
     24 HG2          2.0100     1.4230     0.1220 h1         1 HYI       0.045200
     25 H51         -0.7730     0.2920     1.3070 h1         1 HYI       0.064700
     26 H52         -0.6800     1.5730     0.0830 h1         1 HYI       0.064700
     27 H4          -2.2560    -1.0370    -0.2310 h1         1 HYI       0.077700
     28 HO4         -2.4640     1.4210    -1.6800 ho         1 HYI       0.454000
     29 H3          -3.1940     0.4320     1.5670 h1         1 HYI       0.071700
     30 HO3         -4.3430     2.3390     0.0710 ho         1 HYI       0.476000
     31 HN1         -4.3040    -1.6210     1.4210 hn         1 HYI       0.341500
     32 HO1         -6.1050    -2.7800     0.3590 ho         1 HYI       0.451000
@<TRIPOS>BOND
     1     1     2 1   
     2     2     3 1   
     3     2     4 1   
     4     4     5 1   
     5     4     6 1   
     6     4    18 1   
     7     5    19 1   
     8     5    20 1   
     9     6     7 1   
    10     6    21 1   
    11     6    22 1   
    12     7     8 1   
    13     7    23 1   
    14     7    24 1   
    15     8     9 1   
    16     9    10 1   
    17     9    25 1   
    18     9    26 1   
    19    10    11 1   
    20    10    12 1   
    21    10    27 1   
    22    11    28 1   
    23    12    13 1   
    24    12    14 1   
    25    12    29 1   
    26    13    30 1   
    27    14    15 2   
    28    14    16 1   
    29    16    17 1   
    30    16    31 1   
    31    17    32 1   
@<TRIPOS>SUBSTRUCTURE
     1 HYI         1 TEMP              0 ****  ****    0 ROOT
