@<TRIPOS>MOLECULE
HYI
   32    31     1     0     0
SMALL
abcg2


@<TRIPOS>ATOM
      1 O            6.4170    -0.0680    -0.8690 o          1 HYI      -0.727000
      2 C            5.7050    -0.5580     0.0290 c          1 HYI       0.726000
      3 OXT          5.8360    -1.6830     0.5530 o          1 HYI      -0.727000
      4 CA           4.5000     0.2810     0.5130 c3         1 HYI       0.022500
      5 N            4.7300     1.6950     0.2740 n8         1 HYI      -0.988200
      6 CB           3.2330    -0.2930    -0.1480 c3         1 HYI      -0.096400
      7 CG           1.9510     0.3290     0.3860 c3         1 HYI       0.074600
      8 SD           0.5190    -0.4050    -0.4560 ss         1 HYI      -0.440000
      9 C5          -0.8170     0.4890     0.3850 c3         1 HYI       0.016600
     10 C4          -2.1610    -0.0790    -0.0480 c3         1 HYI       0.174300
     11 O4          -2.3100    -0.1100    -1.4440 oh         1 HYI      -0.640000
     12 C3          -3.3150     0.6930     0.6120 c3         1 HYI       0.056300
     13 O3          -3.3060     2.0350     0.2220 oh         1 HYI      -0.654000
     14 C2          -4.6540     0.0740     0.2050 c          1 HYI       0.575100
     15 O2          -5.4150     0.6710    -0.5380 o          1 HYI      -0.582100
     16 N1          -4.8780    -1.1480     0.7000 ns         1 HYI      -0.368400
     17 O1          -6.0850    -1.7470     0.5110 oh         1 HYI      -0.427100
     18 HA           4.4000     0.1320     1.5940 h1         1 HYI       0.042700
     19 HN1A         4.9710     1.8250    -0.7010 hn         1 HYI       0.375500
     20 HN2          3.8880     2.2300     0.4430 hn         1 HYI       0.375500
     21 HB1          3.2940    -0.1420    -1.2310 hc         1 HYI       0.059700
     22 HB2          3.2020    -1.3710     0.0230 hc         1 HYI       0.059700
     23 HG1          1.8640     0.1560     1.4610 h1         1 HYI       0.045200
     24 HG2          1.9310     1.4080     0.2180 h1         1 HYI       0.045200
     25 H51         -0.7050     0.3700     1.4650 h1         1 HYI       0.064700
     26 H52         -0.7440     1.5550     0.1570 h1         1 HYI       0.064700
     27 H4          -2.2130    -1.1200     0.2830 h1         1 HYI       0.077700
     28 HO4         -2.2370     0.7920    -1.7780 ho         1 HYI       0.454000
     29 H3          -3.2030     0.6220     1.7010 h1         1 HYI       0.071700
     30 HO3         -4.0730     2.1670    -0.3560 ho         1 HYI       0.476000
     31 HN1         -4.3240    -1.5370     1.4500 hn         1 HYI       0.341500
     32 HO1         -5.9660    -2.3650    -0.2220 ho         1 HYI       0.451000
@<TRIPOS>BOND
     1     1     2 1   
     2     2     3 1   
     3     2     4 1   
     4     4     5 1   
     5     4     6 1   
     6     4    18 1   
     7     5    19 1   
     8     5    20 1   
     9     6     7 1   
    10     6    21 1   
    11     6    22 1   
    12     7     8 1   
    13     7    23 1   
    14     7    24 1   
    15     8     9 1   
    16     9    10 1   
    17     9    25 1   
    18     9    26 1   
    19    10    11 1   
    20    10    12 1   
    21    10    27 1   
    22    11    28 1   
    23    12    13 1   
    24    12    14 1   
    25    12    29 1   
    26    13    30 1   
    27    14    15 2   
    28    14    16 1   
    29    16    17 1   
    30    16    31 1   
    31    17    32 1   
@<TRIPOS>SUBSTRUCTURE
     1 HYI         1 TEMP              0 ****  ****    0 ROOT
