@<TRIPOS>MOLECULE
HYK
   82    87     1     0     0
SMALL
bcc


@<TRIPOS>ATOM
      1 N1           5.4010    -0.0510     0.0220 na         1 HYK       0.132300
      2 N3           0.9050    -0.9980     0.4290 ns         1 HYK      -0.593900
      3 C4           4.1850     1.6390    -1.2380 ca         1 HYK      -0.124000
      4 C5           3.9790     2.9700    -1.5660 ca         1 HYK      -0.122500
      5 C6           4.7600     3.9820    -1.0120 ca         1 HYK      -0.072300
      6 C7           5.7610     3.6170    -0.1150 ca         1 HYK      -0.122500
      7 C8           5.9670     2.2920     0.2390 ca         1 HYK      -0.124000
      8 C10          7.7400    -2.7140     0.4650 c3         1 HYK      -0.072300
      9 C13          9.0340    -1.9420     0.2080 c3         1 HYK      -0.080100
     10 C15         -0.3270    -1.7170     0.2020 c6         1 HYK       0.167000
     11 C17         -2.5120    -2.3960     1.2140 c6         1 HYK      -0.078400
     12 C20         -1.1450    -1.0710    -0.9050 ca         1 HYK      -0.091300
     13 C21         -0.4930    -0.6630    -2.0680 ca         1 HYK      -0.116000
     14 C22         -1.1890    -0.1240    -3.1350 ca         1 HYK      -0.121000
     15 C24         -3.2290    -0.3910    -1.9040 ca         1 HYK      -0.117000
     16 C26         -5.6680     0.2590     0.3950 cc         1 HYK      -0.184300
     17 C28         -7.1950     2.2120     0.6550 cc         1 HYK       0.318800
     18 C9           4.5150     5.4200    -1.3580 c3         1 HYK      -0.048800
     19 C3           5.1740     1.2990    -0.3220 ca         1 HYK       0.007800
     20 N            6.6520    -0.5400     0.0300 nc         1 HYK      -0.508800
     21 C2           6.5430    -1.8040     0.3780 cd         1 HYK       0.342600
     22 C12          7.5970    -3.8200    -0.5870 c3         1 HYK      -0.080100
     23 C11          7.7940    -3.3450     1.8610 c3         1 HYK      -0.080100
     24 C1           5.1960    -2.1470     0.6280 cd         1 HYK      -0.300300
     25 C            4.4940    -0.9890     0.3990 cc         1 HYK       0.070300
     26 N2           3.1590    -0.6650     0.5350 ns         1 HYK      -0.493100
     27 C14          2.1320    -1.5420     0.2610 c          1 HYK       0.803100
     28 O1           2.3320    -2.6880    -0.1020 o          1 HYK      -0.606100
     29 C16         -1.1130    -1.8790     1.4980 c6         1 HYK      -0.089400
     30 C18         -3.2710    -1.3370     0.4400 c6         1 HYK       0.199400
     31 O           -4.5640    -1.8560     0.1360 os         1 HYK      -0.311900
     32 C25         -5.6620    -1.0960     0.2870 cd         1 HYK       0.121100
     33 C33         -6.8980    -1.8200     0.3040 cd         1 HYK      -0.128000
     34 C32         -8.0830    -1.1780     0.4350 cc         1 HYK      -0.063000
     35 C27         -8.0840     0.2320     0.5560 cc         1 HYK      -0.076300
     36 N5          -9.0590     1.1030     0.6970 nd         1 HYK      -0.087000
     37 N6          -8.4940     2.3220     0.7570 nd         1 HYK      -0.358700
     38 C31         -5.6980     3.5470    -0.8120 c3         1 HYK      -0.086100
     39 C30         -6.7520     4.5930     1.2200 c3         1 HYK      -0.086100
     40 N4          -6.8820     0.8910     0.5280 na         1 HYK      -0.063200
     41 C19         -2.5340    -0.9280    -0.8200 ca         1 HYK      -0.098300
     42 C23         -2.5680     0.0100    -3.0530 ca         1 HYK      -0.123000
     43 H1           0.8220    -0.0400     0.7330 hn         1 HYK       0.310500
     44 H2           3.5880     0.8730    -1.7150 ha         1 HYK       0.150000
     45 H3           3.2050     3.2170    -2.2810 ha         1 HYK       0.135000
     46 H4           6.3920     4.3800     0.3240 ha         1 HYK       0.135000
     47 H5           6.7460     2.0320     0.9430 ha         1 HYK       0.150000
     48 H6           9.1840    -1.1490     0.9420 hc         1 HYK       0.036811
     49 H7           9.8860    -2.6210     0.2690 hc         1 HYK       0.036811
     50 H8           9.0410    -1.4880    -0.7830 hc         1 HYK       0.036811
     51 H9          -0.0450    -2.7130    -0.1480 h1         1 HYK       0.100700
     52 H10         -2.4670    -3.3250     0.6360 hc         1 HYK       0.066200
     53 H11         -3.0360    -2.6140     2.1460 hc         1 HYK       0.066200
     54 H12          0.5820    -0.7740    -2.1420 ha         1 HYK       0.139000
     55 H13         -0.6600     0.1870    -4.0270 ha         1 HYK       0.137000
     56 H14         -4.3050    -0.2820    -1.8680 ha         1 HYK       0.138000
     57 H15         -4.7940     0.8910     0.3820 h4         1 HYK       0.172000
     58 H16          3.6870     5.8250    -0.7730 hc         1 HYK       0.045367
     59 H17          5.3900     6.0360    -1.1520 hc         1 HYK       0.045367
     60 H18          4.2540     5.5400    -2.4090 hc         1 HYK       0.045367
     61 H19          7.5620    -3.4030    -1.5950 hc         1 HYK       0.036811
     62 H20          8.4500    -4.5000    -0.5340 hc         1 HYK       0.036811
     63 H21          6.6920    -4.4110    -0.4370 hc         1 HYK       0.036811
     64 H22          6.8950    -3.9230     2.0810 hc         1 HYK       0.036811
     65 H23          8.6460    -4.0240     1.9390 hc         1 HYK       0.036811
     66 H24          7.9010    -2.5840     2.6360 hc         1 HYK       0.036811
     67 H25          4.8000    -3.0950     0.9480 ha         1 HYK       0.181000
     68 H26          2.9370     0.2740     0.8310 hn         1 HYK       0.324500
     69 H27         -0.5760    -2.5600     2.1590 hc         1 HYK       0.053700
     70 H28         -1.1740    -0.9160     2.0160 hc         1 HYK       0.053700
     71 H29         -3.3740    -0.4650     1.0970 h1         1 HYK       0.050700
     72 H30         -6.8630    -2.8980     0.2130 ha         1 HYK       0.159000
     73 H31         -9.0210    -1.7140     0.4540 ha         1 HYK       0.169000
     74 H32         -5.3300     2.9970     1.2290 hc         1 HYK       0.048700
     75 H33         -4.9040     4.2930    -0.8220 hc         1 HYK       0.043367
     76 H34         -5.3020     2.6420    -1.2740 hc         1 HYK       0.043367
     77 H35         -6.5150     3.9090    -1.4380 hc         1 HYK       0.043367
     78 H36         -7.0770     4.4490     2.2500 hc         1 HYK       0.043367
     79 H37         -5.9890     5.3710     1.2130 hc         1 HYK       0.043367
     80 H38         -7.6040     4.9520     0.6430 hc         1 HYK       0.043367
     81 H39         -3.1290     0.4220    -3.8810 ha         1 HYK       0.137000
     82 C29         -6.1870     3.3110     0.6210 c3         1 HYK      -0.060000
@<TRIPOS>BOND
     1     1    19 1   
     2     1    20 1   
     3     1    25 1   
     4     2    10 1   
     5     2    27 1   
     6     2    43 1   
     7     3     4 ar  
     8     3    19 ar  
     9     3    44 1   
    10     4     5 ar  
    11     4    45 1   
    12     5     6 ar  
    13     5    18 1   
    14     6     7 ar  
    15     6    46 1   
    16     7    19 ar  
    17     7    47 1   
    18     8     9 1   
    19     8    21 1   
    20     8    22 1   
    21     8    23 1   
    22     9    48 1   
    23     9    49 1   
    24     9    50 1   
    25    10    12 1   
    26    10    29 1   
    27    10    51 1   
    28    11    29 1   
    29    11    30 1   
    30    11    52 1   
    31    11    53 1   
    32    12    13 ar  
    33    12    41 ar  
    34    13    14 ar  
    35    13    54 1   
    36    14    42 ar  
    37    14    55 1   
    38    15    41 ar  
    39    15    42 ar  
    40    15    56 1   
    41    16    32 2   
    42    16    40 1   
    43    16    57 1   
    44    17    37 2   
    45    17    40 1   
    46    17    82 1   
    47    18    58 1   
    48    18    59 1   
    49    18    60 1   
    50    20    21 2   
    51    21    24 1   
    52    22    61 1   
    53    22    62 1   
    54    22    63 1   
    55    23    64 1   
    56    23    65 1   
    57    23    66 1   
    58    24    25 2   
    59    24    67 1   
    60    25    26 1   
    61    26    27 1   
    62    26    68 1   
    63    27    28 2   
    64    29    69 1   
    65    29    70 1   
    66    30    31 1   
    67    30    41 1   
    68    30    71 1   
    69    31    32 1   
    70    32    33 1   
    71    33    34 2   
    72    33    72 1   
    73    34    35 1   
    74    34    73 1   
    75    35    36 2   
    76    35    40 1   
    77    36    37 1   
    78    38    75 1   
    79    38    76 1   
    80    38    77 1   
    81    38    82 1   
    82    39    78 1   
    83    39    79 1   
    84    39    80 1   
    85    39    82 1   
    86    42    81 1   
    87    74    82 1   
@<TRIPOS>SUBSTRUCTURE
     1 HYK         1 TEMP              0 ****  ****    0 ROOT
