@<TRIPOS>MOLECULE
HYK
   82    87     1     0     0
SMALL
No Charge or Current Charge


@<TRIPOS>ATOM
      1 N1           5.5030     0.0630    -0.0110 na         1 HYK       0.183000
      2 N3           0.8890    -1.1500     0.0460 ns         1 HYK      -0.526900
      3 C4           4.5120     1.8200    -1.3770 ca         1 HYK      -0.106000
      4 C5           4.2480     3.1820    -1.6030 ca         1 HYK      -0.104500
      5 C6           4.7180     4.1570    -0.7030 ca         1 HYK      -0.072300
      6 C7           5.4530     3.7560     0.4280 ca         1 HYK      -0.104500
      7 C8           5.7180     2.3940     0.6560 ca         1 HYK      -0.106000
      8 C10          7.7860    -2.6660     0.4000 c3         1 HYK      -0.072300
      9 C13          9.1670    -1.9490     0.3450 c3         1 HYK      -0.080100
     10 C15         -0.3670    -1.9090     0.0760 c6         1 HYK       0.167000
     11 C17         -2.4300    -2.3230     1.4980 c6         1 HYK      -0.078400
     12 C20         -1.3240    -1.3880    -1.0170 ca         1 HYK      -0.091300
     13 C21         -0.8170    -1.2040    -2.3230 ca         1 HYK      -0.098000
     14 C22         -1.6450    -0.7510    -3.3590 ca         1 HYK      -0.103000
     15 C24         -3.5200    -0.6810    -1.8180 ca         1 HYK      -0.099000
     16 C26         -5.6630     0.3220     0.6010 cc         1 HYK      -0.217000
     17 C28         -7.0790     2.3350     0.5290 cc         1 HYK       0.318800
     18 C9           4.4280     5.6300    -0.9470 c3         1 HYK      -0.048800
     19 C3           5.2470     1.4170    -0.2430 ca         1 HYK       0.007800
     20 N            6.7980    -0.3890     0.0750 nc         1 HYK      -0.508800
     21 C2           6.6170    -1.6920     0.2420 cd         1 HYK       0.277300
     22 C12          7.7300    -3.7140    -0.7430 c3         1 HYK      -0.080100
     23 C11          7.6610    -3.3890     1.7670 c3         1 HYK      -0.080100
     24 C1           5.2410    -2.0480     0.2520 cd         1 HYK      -0.217000
     25 C            4.5130    -0.9070     0.0840 cc         1 HYK       0.019600
     26 N2           3.1310    -0.7390     0.0420 ns         1 HYK      -0.426100
     27 C14          2.1440    -1.6920     0.1210 c          1 HYK       0.669100
     28 O1           2.3420    -2.8890     0.2430 o          1 HYK      -0.606100
     29 C16         -0.9610    -1.8640     1.5000 c6         1 HYK      -0.089400
     30 C18         -3.2850    -1.3480     0.6640 c6         1 HYK       0.222600
     31 O           -4.6380    -1.8620     0.6170 os         1 HYK      -0.335100
     32 C25         -5.7660    -1.0740     0.5970 cd         1 HYK       0.121100
     33 C33         -7.0230    -1.7830     0.5680 cd         1 HYK      -0.110000
     34 C32         -8.1950    -1.0640     0.5260 cc         1 HYK      -0.045000
     35 C27         -8.1040     0.3540     0.5210 cc         1 HYK      -0.127000
     36 N5          -9.0350     1.2870     0.4610 nd         1 HYK      -0.087000
     37 N6          -8.3960     2.5270     0.4580 nd         1 HYK      -0.358700
     38 C31         -5.3850     3.5720    -0.8880 c3         1 HYK      -0.086100
     39 C30         -6.4970     4.7600     1.0790 c3         1 HYK      -0.086100
     40 N4          -6.9020     0.9770     0.5810 na         1 HYK       0.038200
     41 C19         -2.7020    -1.1390    -0.7580 ca         1 HYK      -0.098300
     42 C23         -2.9960    -0.4870    -3.1050 ca         1 HYK      -0.105000
     43 H1           0.8240    -0.1470    -0.0600 hn         1 HYK       0.310500
     44 H2           4.1520     1.0780    -2.0860 ha         1 HYK       0.132000
     45 H3           3.6790     3.4800    -2.4820 ha         1 HYK       0.117000
     46 H4           5.8200     4.4990     1.1330 ha         1 HYK       0.117000
     47 H5           6.2870     2.0950     1.5340 ha         1 HYK       0.132000
     48 H6           9.2580    -1.2060     1.1480 hc         1 HYK       0.036811
     49 H7           9.9870    -2.6680     0.4610 hc         1 HYK       0.036811
     50 H8           9.3070    -1.4350    -0.6140 hc         1 HYK       0.036811
     51 H9          -0.1530    -2.9610    -0.1690 h1         1 HYK       0.100700
     52 H10         -2.5090    -3.3390     1.0880 hc         1 HYK       0.066200
     53 H11         -2.8130    -2.3620     2.5260 hc         1 HYK       0.066200
     54 H12          0.2280    -1.4170    -2.5390 ha         1 HYK       0.121000
     55 H13         -1.2400    -0.6100    -4.3590 ha         1 HYK       0.119000
     56 H14         -4.5740    -0.4780    -1.6640 ha         1 HYK       0.120000
     57 H15         -4.7630     0.9180     0.6050 h4         1 HYK       0.154000
     58 H16          3.4830     5.9250    -0.4750 hc         1 HYK       0.045367
     59 H17          5.2210     6.2670    -0.5370 hc         1 HYK       0.045367
     60 H18          4.3520     5.8500    -2.0180 hc         1 HYK       0.045367
     61 H19          7.7950    -3.2230    -1.7220 hc         1 HYK       0.036811
     62 H20          8.5590    -4.4270    -0.6640 hc         1 HYK       0.036811
     63 H21          6.7930    -4.2830    -0.7130 hc         1 HYK       0.036811
     64 H22          6.7240    -3.9550     1.8320 hc         1 HYK       0.036811
     65 H23          8.4880    -4.0930     1.9170 hc         1 HYK       0.036811
     66 H24          7.6760    -2.6660     2.5910 hc         1 HYK       0.036811
     67 H25          4.8540    -3.0520     0.3760 ha         1 HYK       0.163000
     68 H26          2.7860     0.2050    -0.0580 hn         1 HYK       0.324500
     69 H27         -0.3650    -2.4990     2.1710 hc         1 HYK       0.053700
     70 H28         -0.9010    -0.8430     1.9020 hc         1 HYK       0.053700
     71 H29         -3.2700    -0.3910     1.2010 h1         1 HYK       0.050700
     72 H30         -7.0420    -2.8680     0.5670 ha         1 HYK       0.141000
     73 H31         -9.1650    -1.5500     0.4870 ha         1 HYK       0.151000
     74 H32         -5.1970     3.0780     1.1900 hc         1 HYK       0.048700
     75 H33         -4.5690     4.3060    -0.8710 hc         1 HYK       0.043367
     76 H34         -4.9770     2.6210    -1.2520 hc         1 HYK       0.043367
     77 H35         -6.1410     3.9150    -1.6050 hc         1 HYK       0.043367
     78 H36         -6.9010     4.6360     2.0910 hc         1 HYK       0.043367
     79 H37         -5.6720     5.4820     1.1310 hc         1 HYK       0.043367
     80 H38         -7.2830     5.1850     0.4430 hc         1 HYK       0.043367
     81 H39         -3.6410    -0.1370    -3.9080 ha         1 HYK       0.119000
     82 C29         -6.0020     3.4040     0.5200 c3         1 HYK      -0.060000
@<TRIPOS>BOND
     1     1    19 1   
     2     1    20 1   
     3     1    25 1   
     4     2    10 1   
     5     2    27 1   
     6     2    43 1   
     7     3     4 ar  
     8     3    19 ar  
     9     3    44 1   
    10     4     5 ar  
    11     4    45 1   
    12     5     6 ar  
    13     5    18 1   
    14     6     7 ar  
    15     6    46 1   
    16     7    19 ar  
    17     7    47 1   
    18     8     9 1   
    19     8    21 1   
    20     8    22 1   
    21     8    23 1   
    22     9    48 1   
    23     9    49 1   
    24     9    50 1   
    25    10    12 1   
    26    10    29 1   
    27    10    51 1   
    28    11    29 1   
    29    11    30 1   
    30    11    52 1   
    31    11    53 1   
    32    12    13 ar  
    33    12    41 ar  
    34    13    14 ar  
    35    13    54 1   
    36    14    42 ar  
    37    14    55 1   
    38    15    41 ar  
    39    15    42 ar  
    40    15    56 1   
    41    16    32 2   
    42    16    40 1   
    43    16    57 1   
    44    17    37 2   
    45    17    40 1   
    46    17    82 1   
    47    18    58 1   
    48    18    59 1   
    49    18    60 1   
    50    20    21 2   
    51    21    24 1   
    52    22    61 1   
    53    22    62 1   
    54    22    63 1   
    55    23    64 1   
    56    23    65 1   
    57    23    66 1   
    58    24    25 2   
    59    24    67 1   
    60    25    26 1   
    61    26    27 1   
    62    26    68 1   
    63    27    28 2   
    64    29    69 1   
    65    29    70 1   
    66    30    31 1   
    67    30    41 1   
    68    30    71 1   
    69    31    32 1   
    70    32    33 1   
    71    33    34 2   
    72    33    72 1   
    73    34    35 1   
    74    34    73 1   
    75    35    36 2   
    76    35    40 1   
    77    36    37 1   
    78    38    75 1   
    79    38    76 1   
    80    38    77 1   
    81    38    82 1   
    82    39    78 1   
    83    39    79 1   
    84    39    80 1   
    85    39    82 1   
    86    42    81 1   
    87    74    82 1   
@<TRIPOS>SUBSTRUCTURE
     1 HYK         1 TEMP              0 ****  ****    0 ROOT
