@<TRIPOS>MOLECULE
HYM
   29    31     1     0     0
SMALL
No Charge or Current Charge


@<TRIPOS>ATOM
      1 CAI          1.1170    -1.7970     1.5050 c3         1 HYM      -0.038200
      2 CAH          0.0700    -2.9150     1.4460 c3         1 HYM       0.107000
      3 NAG         -0.1930    -3.3720     0.0770 ns         1 HYM      -0.488900
      4 CAF         -1.0500    -2.7450    -0.7970 c          1 HYM       0.597600
      5 OAK         -1.5760    -3.3770    -1.6980 o          1 HYM      -0.569000
      6 CAD         -1.3660    -1.3220    -0.5230 cc         1 HYM      -0.213600
      7 NAC         -2.5050    -0.6130    -0.9310 na         1 HYM      -0.056000
      8 CAA         -2.4910     0.6660    -0.3930 cc         1 HYM       0.027000
      9 ClA         -3.7440     1.8530    -0.5910 cl         1 HYM      -0.113000
     10 CAB         -1.3030     0.7920     0.2640 cd         1 HYM       0.039000
     11 ClB         -0.7200     2.2070     1.0880 cl         1 HYM      -0.141000
     12 CAE         -0.5660    -0.4150     0.1520 cd         1 HYM      -0.073800
     13 CAJ          0.8260    -0.6200     0.5840 cf         1 HYM      -0.004400
     14 CAL          1.8820     0.1190     0.1000 cc         1 HYM      -0.011200
     15 NAP          1.7940     1.0800    -0.8860 na         1 HYM      -0.802200
     16 CAM          3.2820     0.1390     0.5950 c          1 HYM       0.707700
     17 OAR          3.8340    -0.4860     1.4880 o          1 HYM      -0.537100
     18 NAN          3.8700     1.1050    -0.1900 nc         1 HYM      -0.775100
     19 CAO          3.0150     1.6040    -1.0270 cd         1 HYM       0.878100
     20 NAQ          3.2640     2.5910    -1.8370 nv         1 HYM      -1.044200
     21 HAI1         1.2100    -1.4530     2.5420 hc         1 HYM       0.079200
     22 HAI2         2.0710    -2.2640     1.2400 hc         1 HYM       0.079200
     23 HAH1         0.4180    -3.7700     2.0410 h1         1 HYM       0.052200
     24 HAH2        -0.8710    -2.5640     1.8910 h1         1 HYM       0.052200
     25 HAG          0.0230    -4.3350    -0.1490 hn         1 HYM       0.323500
     26 HAC         -3.2610    -0.9950    -1.4920 hn         1 HYM       0.380000
     27 HAP          0.9860     1.3470    -1.4310 hn         1 HYM       0.519000
     28 HAQ1         2.4780     3.1950    -2.0260 hn         1 HYM       0.513000
     29 HAQ2         4.1290     3.0700    -1.6300 hn         1 HYM       0.513000
@<TRIPOS>BOND
     1     1     2 1   
     2     1    13 1   
     3     1    21 1   
     4     1    22 1   
     5     2     3 1   
     6     2    23 1   
     7     2    24 1   
     8     3     4 1   
     9     3    25 1   
    10     4     5 2   
    11     4     6 1   
    12     6     7 1   
    13     6    12 2   
    14     7     8 1   
    15     7    26 1   
    16     8     9 1   
    17     8    10 2   
    18    10    11 1   
    19    10    12 1   
    20    12    13 1   
    21    13    14 2   
    22    14    15 1   
    23    14    16 1   
    24    15    19 1   
    25    15    27 1   
    26    16    17 2   
    27    16    18 1   
    28    18    19 2   
    29    19    20 1   
    30    20    28 1   
    31    20    29 1   
@<TRIPOS>SUBSTRUCTURE
     1 HYM         1 TEMP              0 ****  ****    0 ROOT
