@<TRIPOS>MOLECULE
HYM
   29    31     1     0     0
SMALL
abcg2


@<TRIPOS>ATOM
      1 CAI          1.1360    -1.8600     1.4620 c3         1 HYM      -0.038200
      2 CAH          0.0300    -2.9010     1.4080 c3         1 HYM       0.107000
      3 NAG         -0.2820    -3.3710     0.0670 ns         1 HYM      -0.488900
      4 CAF         -1.1140    -2.7370    -0.7780 c          1 HYM       0.597600
      5 OAK         -1.6480    -3.2630    -1.7460 o          1 HYM      -0.569000
      6 CAD         -1.3420    -1.3210    -0.4560 cc         1 HYM      -0.213600
      7 NAC         -2.4900    -0.6960    -0.8230 na         1 HYM      -0.056000
      8 CAA         -2.4430     0.5940    -0.4380 cc         1 HYM       0.027000
      9 CLA         -3.7280     1.6700    -0.6740 cl         1 HYM      -0.113000
     10 CAB         -1.2320     0.8190     0.1710 cd         1 HYM       0.039000
     11 CLB         -0.7640     2.2960     0.8870 cl         1 HYM      -0.141000
     12 CAE         -0.5070    -0.4000     0.1530 cd         1 HYM      -0.073800
     13 CAJ          0.8640    -0.6490     0.6000 cf         1 HYM      -0.004400
     14 CAL          1.8530     0.1670     0.2030 cc         1 HYM      -0.011200
     15 NAP          1.7690     1.2210    -0.6970 na         1 HYM      -0.802200
     16 CAM          3.3040     0.1730     0.5980 c          1 HYM       0.707700
     17 OAR          3.8220    -0.5660     1.4170 o          1 HYM      -0.537100
     18 NAN          3.9340     1.1600    -0.0970 nc         1 HYM      -0.775100
     19 CAO          3.0150     1.7280    -0.8590 cd         1 HYM       0.878100
     20 NAQ          3.2620     2.7090    -1.7090 nv         1 HYM      -1.044200
     21 HAI1         1.2520    -1.5550     2.5060 hc         1 HYM       0.079200
     22 HAI2         2.0790    -2.3180     1.1720 hc         1 HYM       0.079200
     23 HAH1         0.3470    -3.7700     1.9820 h1         1 HYM       0.052200
     24 HAH2        -0.8770    -2.5270     1.8880 h1         1 HYM       0.052200
     25 HAG         -0.0850    -4.3370    -0.1450 hn         1 HYM       0.323500
     26 HAC         -3.2630    -1.1390    -1.2980 hn         1 HYM       0.380000
     27 HAP          0.9940     1.4030    -1.3150 hn         1 HYM       0.519000
     28 HAQ1         2.5400     3.1290    -2.2690 hn         1 HYM       0.513000
     29 HAQ2         4.1980     3.0660    -1.7980 hn         1 HYM       0.513000
@<TRIPOS>BOND
     1     1     2 1   
     2     1    13 1   
     3     1    21 1   
     4     1    22 1   
     5     2     3 1   
     6     2    23 1   
     7     2    24 1   
     8     3     4 1   
     9     3    25 1   
    10     4     5 2   
    11     4     6 1   
    12     6     7 1   
    13     6    12 2   
    14     7     8 1   
    15     7    26 1   
    16     8     9 1   
    17     8    10 2   
    18    10    11 1   
    19    10    12 1   
    20    12    13 1   
    21    13    14 2   
    22    14    15 1   
    23    14    16 1   
    24    15    19 1   
    25    15    27 1   
    26    16    17 2   
    27    16    18 1   
    28    18    19 2   
    29    19    20 1   
    30    20    28 1   
    31    20    29 1   
@<TRIPOS>SUBSTRUCTURE
     1 HYM         1 TEMP              0 ****  ****    0 ROOT
