@<TRIPOS>MOLECULE
HYN
   11    11     1     0     0
SMALL
bcc


@<TRIPOS>ATOM
      1 O           -2.2920    -0.5040     0.0200 o          1 HYN      -0.577500
      2 C           -1.1450    -0.1260     0.0070 c          1 HYN       0.703500
      3 C1          -0.6520     1.3070    -0.0280 c5         1 HYN       0.005000
      4 N            0.7750     1.1390    -0.0350 ns         1 HYN      -0.593900
      5 N1          -0.0260    -0.8990     0.0190 ns         1 HYN      -0.620500
      6 C2           1.1530    -0.1520    -0.0030 c          1 HYN       0.827500
      7 O1           2.2740    -0.6140     0.0040 o          1 HYN      -0.619500
      8 H1          -1.0250     1.8130    -0.9210 h1         1 HYN       0.081200
      9 H1A         -1.0120     1.8510     0.8490 h1         1 HYN       0.081200
     10 HN           1.4350     1.8980    -0.0440 hn         1 HYN       0.354500
     11 HN1         -0.0310    -1.9090     0.0400 hn         1 HYN       0.357500
@<TRIPOS>BOND
     1     1     2 2   
     2     2     3 1   
     3     2     5 1   
     4     3     4 1   
     5     3     8 1   
     6     3     9 1   
     7     4     6 1   
     8     4    10 1   
     9     5     6 1   
    10     5    11 1   
    11     6     7 2   
@<TRIPOS>SUBSTRUCTURE
     1 HYN         1 TEMP              0 ****  ****    0 ROOT
