@<TRIPOS>MOLECULE
HYN
   11    11     1     0     0
SMALL
No Charge or Current Charge


@<TRIPOS>ATOM
      1 O           -2.2970    -0.6040     0.0220 o          1 HYN      -0.502000
      2 C           -1.1690    -0.1360     0.0070 c          1 HYN       0.561000
      3 C1          -0.6740     1.3370    -0.0270 c5         1 HYN       0.005000
      4 N            0.8020     1.1510    -0.0290 ns         1 HYN      -0.526900
      5 N1          -0.0170    -0.8410     0.0170 ns         1 HYN      -0.486500
      6 C2           1.1380    -0.1680    -0.0020 c          1 HYN       0.618000
      7 O1           2.2590    -0.6370     0.0030 o          1 HYN      -0.544000
      8 H1          -1.0480     1.8240    -0.9370 h1         1 HYN       0.081200
      9 H1A         -1.0400     1.8630     0.8640 h1         1 HYN       0.081200
     10 HN           1.5250     1.8630    -0.0480 hn         1 HYN       0.354500
     11 HN1         -0.0260    -1.8490     0.0390 hn         1 HYN       0.357500
@<TRIPOS>BOND
     1     1     2 2   
     2     2     3 1   
     3     2     5 1   
     4     3     4 1   
     5     3     8 1   
     6     3     9 1   
     7     4     6 1   
     8     4    10 1   
     9     5     6 1   
    10     5    11 1   
    11     6     7 2   
@<TRIPOS>SUBSTRUCTURE
     1 HYN         1 TEMP              0 ****  ****    0 ROOT
