@<TRIPOS>MOLECULE
HYO
   44    46     1     0     0
SMALL
bcc


@<TRIPOS>ATOM
      1 C10          3.0590    -0.9120    -0.8310 c6         1 HYO      -0.074400
      2 C13         -0.4430    -0.7820    -1.6900 c          1 HYO       0.661100
      3 C15         -2.2360    -0.5700    -0.0380 ca         1 HYO      -0.090300
      4 C17         -2.9170     0.5660    -0.4730 ca         1 HYO      -0.114000
      5 C20         -2.7090     0.0600     2.2470 ca         1 HYO      -0.130500
      6 C21         -3.3840     1.1900     1.8060 ca         1 HYO      -0.121000
      7 C05          2.2480     1.4800     0.4680 c5         1 HYO       0.160500
      8 C06          3.3980    -0.4680     0.5900 c5         1 HYO       0.160500
      9 C07          1.4470     0.6510     1.4980 c5         1 HYO      -0.101900
     10 C08          2.2340    -0.6720     1.5870 c5         1 HYO      -0.101900
     11 C09          1.7790     1.2700    -0.9700 c6         1 HYO      -0.074400
     12 C11          1.8520    -0.1890    -1.4210 c6         1 HYO       0.162100
     13 C12          4.3300     1.4660     1.7230 c3         1 HYO       0.146100
     14 C14         -1.5890    -1.5190    -1.0230 c3         1 HYO      -0.077400
     15 C16         -2.5750    -2.0610    -2.0460 c3         1 HYO       0.154400
     16 C18         -2.1390    -0.8120     1.3290 ca         1 HYO      -0.114000
     17 C19         -3.4880     1.4380     0.4430 ca         1 HYO      -0.130500
     18 N04          3.6200     0.9780     0.5570 n3         1 HYO      -0.696600
     19 O01          0.6760    -0.9180    -1.0020 os         1 HYO      -0.424900
     20 O02         -0.5570    -0.1110    -2.6870 o          1 HYO      -0.540000
     21 O03         -1.8640    -2.9070    -2.9180 oh         1 HYO      -0.597800
     22 H1           3.9200    -0.7000    -1.4700 hc         1 HYO       0.059200
     23 H2           2.9010    -1.9930    -0.8780 hc         1 HYO       0.059200
     24 H4          -2.6240    -0.1450     3.3060 ha         1 HYO       0.132500
     25 H5          -3.8270     1.8730     2.5190 ha         1 HYO       0.132000
     26 H6           2.2230     2.5490     0.6920 h1         1 HYO       0.061700
     27 H7           4.3090    -0.9820     0.9070 h1         1 HYO       0.061700
     28 H8           1.4320     1.1610     2.4630 hc         1 HYO       0.048700
     29 H9           0.4070     0.5110     1.2040 hc         1 HYO       0.048700
     30 H10          1.6260    -1.5440     1.3510 hc         1 HYO       0.048700
     31 H11          2.6220    -0.8250     2.5950 hc         1 HYO       0.048700
     32 H12          0.7710     1.6660    -1.1130 hc         1 HYO       0.059200
     33 H13          2.4310     1.8500    -1.6270 hc         1 HYO       0.059200
     34 H14          1.9040    -0.2320    -2.5100 h1         1 HYO       0.064700
     35 H15          3.8880     1.1790     2.6880 h1         1 HYO       0.030700
     36 H16          5.3550     1.0940     1.7110 h1         1 HYO       0.030700
     37 H17          4.3750     2.5550     1.6940 h1         1 HYO       0.030700
     38 H18         -1.1830    -2.3640    -0.4620 hc         1 HYO       0.086700
     39 H19         -3.3580    -2.6030    -1.5040 h1         1 HYO       0.032200
     40 H20         -3.0630    -1.2390    -2.5810 h1         1 HYO       0.032200
     41 H21         -1.6130    -1.6910     1.6800 ha         1 HYO       0.138500
     42 H22         -4.0160     2.3150     0.0900 ha         1 HYO       0.132500
     43 H24         -2.4950    -3.3710    -3.4760 ho         1 HYO       0.409000
     44 H3          -3.0020     0.7810    -1.5310 ha         1 HYO       0.138500
@<TRIPOS>BOND
     1     1     8 1   
     2     1    12 1   
     3     1    22 1   
     4     1    23 1   
     5     2    14 1   
     6     2    19 1   
     7     2    20 2   
     8     3     4 ar  
     9     3    14 1   
    10     3    16 ar  
    11     4    17 ar  
    12     4    44 1   
    13     5     6 ar  
    14     5    16 ar  
    15     5    24 1   
    16     6    17 ar  
    17     6    25 1   
    18     7     9 1   
    19     7    11 1   
    20     7    18 1   
    21     7    26 1   
    22     8    10 1   
    23     8    18 1   
    24     8    27 1   
    25     9    10 1   
    26     9    28 1   
    27     9    29 1   
    28    10    30 1   
    29    10    31 1   
    30    11    12 1   
    31    11    32 1   
    32    11    33 1   
    33    12    19 1   
    34    12    34 1   
    35    13    18 1   
    36    13    35 1   
    37    13    36 1   
    38    13    37 1   
    39    14    15 1   
    40    14    38 1   
    41    15    21 1   
    42    15    39 1   
    43    15    40 1   
    44    16    41 1   
    45    17    42 1   
    46    21    43 1   
@<TRIPOS>SUBSTRUCTURE
     1 HYO         1 TEMP              0 ****  ****    0 ROOT
