@<TRIPOS>MOLECULE
HYO
   44    46     1     0     0
SMALL
No Charge or Current Charge


@<TRIPOS>ATOM
      1 C10          3.1710    -0.8670    -1.0440 c6         1 HYO      -0.074400
      2 C13         -0.5170    -0.5080    -1.5740 c          1 HYO       0.612100
      3 C15         -2.4820    -0.4290    -0.0030 ca         1 HYO      -0.090300
      4 C17         -3.4370     0.4540    -0.5530 ca         1 HYO      -0.096000
      5 C20         -3.0680     0.3740     2.2310 ca         1 HYO      -0.112500
      6 C21         -4.0210     1.2430     1.6750 ca         1 HYO      -0.103000
      7 C05          2.4420     1.4300     0.5500 c5         1 HYO       0.160500
      8 C06          3.5750    -0.5960     0.4360 c5         1 HYO       0.160500
      9 C07          1.6880     0.5190     1.5720 c5         1 HYO      -0.101900
     10 C08          2.4550    -0.8480     1.4980 c5         1 HYO      -0.101900
     11 C09          1.9280     1.3510    -0.9180 c6         1 HYO      -0.074400
     12 C11          1.9030    -0.0970    -1.4820 c6         1 HYO       0.185300
     13 C12          4.6340     1.2550     1.7610 c3         1 HYO       0.146100
     14 C14         -1.6240    -1.3300    -0.8990 c3         1 HYO      -0.077400
     15 C16         -2.4520    -2.1140    -1.9400 c3         1 HYO       0.177600
     16 C18         -2.3010    -0.4570     1.3960 ca         1 HYO      -0.096000
     17 C19         -4.2040     1.2830     0.2840 ca         1 HYO      -0.112500
     18 N04          3.8160     0.8630     0.5850 n3         1 HYO      -0.696600
     19 O01          0.7220    -0.8210    -1.0770 os         1 HYO      -0.448100
     20 O02         -0.7200     0.3480    -2.4280 o          1 HYO      -0.491000
     21 O03         -1.6260    -3.0790    -2.6050 oh         1 HYO      -0.660000
     22 H1           4.0080    -0.5800    -1.6940 hc         1 HYO       0.059200
     23 H2           3.0240    -1.9440    -1.1980 hc         1 HYO       0.059200
     24 H4          -2.9220     0.3440     3.3080 ha         1 HYO       0.114500
     25 H5          -4.6140     1.8860     2.3220 ha         1 HYO       0.114000
     26 H6           2.4210     2.4850     0.8600 h1         1 HYO       0.061700
     27 H7           4.4750    -1.1900     0.6550 h1         1 HYO       0.061700
     28 H8           1.7400     0.9390     2.5830 hc         1 HYO       0.048700
     29 H9           0.6240     0.4210     1.3320 hc         1 HYO       0.048700
     30 H10          1.8020    -1.6830     1.2220 hc         1 HYO       0.048700
     31 H11          2.8880    -1.1030     2.4720 hc         1 HYO       0.048700
     32 H12          0.9360     1.8130    -0.9820 hc         1 HYO       0.059200
     33 H13          2.5840     1.9660    -1.5490 hc         1 HYO       0.059200
     34 H14          1.8970    -0.0510    -2.5820 h1         1 HYO       0.064700
     35 H15          4.1710     0.9450     2.7070 h1         1 HYO       0.030700
     36 H16          5.6300     0.7960     1.7040 h1         1 HYO       0.030700
     37 H17          4.7650     2.3440     1.7890 h1         1 HYO       0.030700
     38 H18         -1.1290    -2.0710    -0.2600 hc         1 HYO       0.086700
     39 H19         -3.2790    -2.6210    -1.4250 h1         1 HYO       0.032200
     40 H20         -2.8880    -1.4200    -2.6700 h1         1 HYO       0.032200
     41 H21         -1.5640    -1.1220     1.8410 ha         1 HYO       0.120500
     42 H22         -4.9370     1.9600    -0.1480 ha         1 HYO       0.114500
     43 H24         -2.2060    -3.5750    -3.2250 ho         1 HYO       0.448000
     44 H3          -3.5830     0.5080    -1.6290 ha         1 HYO       0.120500
@<TRIPOS>BOND
     1     1     8 1   
     2     1    12 1   
     3     1    22 1   
     4     1    23 1   
     5     2    14 1   
     6     2    19 1   
     7     2    20 2   
     8     3     4 ar  
     9     3    14 1   
    10     3    16 ar  
    11     4    17 ar  
    12     4    44 1   
    13     5     6 ar  
    14     5    16 ar  
    15     5    24 1   
    16     6    17 ar  
    17     6    25 1   
    18     7     9 1   
    19     7    11 1   
    20     7    18 1   
    21     7    26 1   
    22     8    10 1   
    23     8    18 1   
    24     8    27 1   
    25     9    10 1   
    26     9    28 1   
    27     9    29 1   
    28    10    30 1   
    29    10    31 1   
    30    11    12 1   
    31    11    32 1   
    32    11    33 1   
    33    12    19 1   
    34    12    34 1   
    35    13    18 1   
    36    13    35 1   
    37    13    36 1   
    38    13    37 1   
    39    14    15 1   
    40    14    38 1   
    41    15    21 1   
    42    15    39 1   
    43    15    40 1   
    44    16    41 1   
    45    17    42 1   
    46    21    43 1   
@<TRIPOS>SUBSTRUCTURE
     1 HYO         1 TEMP              0 ****  ****    0 ROOT
