@<TRIPOS>MOLECULE
HYP
   17    17     1     0     0
SMALL
abcg2


@<TRIPOS>ATOM
      1 N           -3.4850    16.5350    44.2720 n7         1 HYP      -0.809400
      2 CA          -2.9670    15.7760    43.1250 c5         1 HYP       0.020500
      3 C           -1.4310    15.6690    43.0500 c          1 HYP       0.728000
      4 O           -0.7430    16.4310    43.7520 o          1 HYP      -0.725000
      5 CB          -3.4860    16.5020    41.8460 c5         1 HYP      -0.119400
      6 CG          -4.5120    17.5110    42.3580 c5         1 HYP       0.113300
      7 CD          -3.9540    17.8110    43.7500 c5         1 HYP       0.115800
      8 OD1         -5.8330    17.0050    42.3930 oh         1 HYP      -0.682000
      9 OXT         -1.0140    14.8260    42.2260 o          1 HYP      -0.725000
     10 H           -4.2690    16.0360    44.6720 hn         1 HYP       0.358000
     11 HA          -3.3710    14.7610    43.1640 h1         1 HYP       0.026700
     12 HB2         -2.6770    17.0430    41.3490 hc         1 HYP       0.051700
     13 HB3         -3.9110    15.8190    41.1090 hc         1 HYP       0.051700
     14 HG          -4.5570    18.4050    41.7320 h1         1 HYP       0.060700
     15 HD22        -4.6840    18.2740    44.4160 h1         1 HYP       0.050200
     16 HD23        -3.1100    18.5020    43.6560 h1         1 HYP       0.050200
     17 HD1         -5.8360    16.1720    42.8760 ho         1 HYP       0.433000
@<TRIPOS>BOND
     1     1     2 1   
     2     1     7 1   
     3     1    10 1   
     4     2     3 1   
     5     2     5 1   
     6     2    11 1   
     7     3     4 1   
     8     3     9 1   
     9     5     6 1   
    10     5    12 1   
    11     5    13 1   
    12     6     7 1   
    13     6     8 1   
    14     6    14 1   
    15     7    15 1   
    16     7    16 1   
    17     8    17 1   
@<TRIPOS>SUBSTRUCTURE
     1 HYP         1 TEMP              0 ****  ****    0 ROOT
