@<TRIPOS>MOLECULE
HYP
   17    17     1     0     0
SMALL
No Charge or Current Charge


@<TRIPOS>ATOM
      1 N           -3.3910    16.6380    44.2750 n7         1 HYP      -0.809400
      2 CA          -2.9860    15.8670    43.0360 c5         1 HYP       0.020500
      3 C           -1.4710    15.3800    42.9570 c          1 HYP       0.728000
      4 O           -0.5710    16.1890    42.7610 o          1 HYP      -0.725000
      5 CB          -3.3440    16.8010    41.8330 c5         1 HYP      -0.119400
      6 CG          -4.6090    17.5220    42.3590 c5         1 HYP       0.113300
      7 CD          -4.1090    17.8570    43.7970 c5         1 HYP       0.115800
      8 OD1         -5.7530    16.6620    42.3540 oh         1 HYP      -0.682000
      9 OXT         -1.2320    14.1860    43.0980 o          1 HYP      -0.725000
     10 H           -4.0230    16.0580    44.8390 hn         1 HYP       0.358000
     11 HA          -3.6100    14.9640    42.9780 h1         1 HYP       0.026700
     12 HB2         -2.5490    17.5270    41.6240 hc         1 HYP       0.051700
     13 HB3         -3.5230    16.2450    40.9060 hc         1 HYP       0.051700
     14 HG          -4.8200    18.4370    41.7860 h1         1 HYP       0.060700
     15 HD22        -4.9290    18.1420    44.4720 h1         1 HYP       0.050200
     16 HD23        -3.4130    18.7070    43.7570 h1         1 HYP       0.050200
     17 HD1         -5.5060    15.8940    42.9130 ho         1 HYP       0.433000
@<TRIPOS>BOND
     1     1     2 1   
     2     1     7 1   
     3     1    10 1   
     4     2     3 1   
     5     2     5 1   
     6     2    11 1   
     7     3     4 1   
     8     3     9 1   
     9     5     6 1   
    10     5    12 1   
    11     5    13 1   
    12     6     7 1   
    13     6     8 1   
    14     6    14 1   
    15     7    15 1   
    16     7    16 1   
    17     8    17 1   
@<TRIPOS>SUBSTRUCTURE
     1 HYP         1 TEMP              0 ****  ****    0 ROOT
