@<TRIPOS>MOLECULE
HYQ
   44    48     1     0     0
SMALL
abcg2


@<TRIPOS>ATOM
      1 C1          -2.9080    -0.9400     0.8250 c5         1 HYQ      -0.144200
      2 C4          -1.4600    -0.7770     1.2050 c          1 HYQ       0.577000
      3 O10         -0.9840    -0.6860     2.3070 o          1 HYQ      -0.482000
      4 N9          -0.7100    -0.7440     0.0370 n          1 HYQ      -0.238000
      5 C14          0.7040    -0.6970     0.0290 ca         1 HYQ       0.014000
      6 C16          1.3970    -1.8730     0.0540 ca         1 HYQ      -0.111000
      7 C19          2.7980    -1.8580     0.0480 ca         1 HYQ      -0.034000
      8 C20          3.4600    -0.6640     0.0410 ca         1 HYQ      -0.150200
      9 N23          4.9130    -0.7360     0.1090 no         1 HYQ       0.689200
     10 O26          5.4850     0.0240     0.8540 o          1 HYQ      -0.392500
     11 O25          5.4630    -1.5770    -0.5600 o          1 HYQ      -0.392500
     12 C17          2.7910     0.5880    -0.0050 ca         1 HYQ       0.011000
     13 C21          3.4360     1.8460    -0.0950 ca         1 HYQ      -0.093000
     14 C24          2.7070     3.0010    -0.1640 ca         1 HYQ      -0.088000
     15 C22          1.3020     2.9680    -0.1410 ca         1 HYQ      -0.099000
     16 C18          0.6490     1.7710    -0.0710 ca         1 HYQ      -0.088000
     17 C15          1.3670     0.5550    -0.0130 ca         1 HYQ      -0.029000
     18 C6          -1.4740    -0.8550    -1.1170 c          1 HYQ       0.577000
     19 O13         -1.0090    -0.8400    -2.2280 o          1 HYQ      -0.482000
     20 C2          -2.9170    -0.9900    -0.7100 c5         1 HYQ      -0.144200
     21 C5          -3.8130     0.1220    -1.2690 c6         1 HYQ      -0.043700
     22 C12         -5.2270    -0.1140    -0.7320 c6         1 HYQ      -0.077400
     23 C8          -5.2190    -0.0690     0.8140 c6         1 HYQ      -0.077400
     24 C3          -3.8010     0.2050     1.3200 c6         1 HYQ      -0.043700
     25 C7          -3.3150     1.5390     0.7520 c6         1 HYQ      -0.077400
     26 C11         -3.3210     1.4890    -0.7930 c6         1 HYQ      -0.077400
     27 H1          -3.2550    -1.8820     1.2580 hc         1 HYQ       0.090700
     28 H16          0.8710    -2.8170     0.0840 ha         1 HYQ       0.135000
     29 H19          3.3380    -2.7940     0.0770 ha         1 HYQ       0.148000
     30 H21          4.5120     1.9150    -0.1230 ha         1 HYQ       0.139000
     31 H24          3.2200     3.9500    -0.2390 ha         1 HYQ       0.122000
     32 H22          0.7380     3.8900    -0.1880 ha         1 HYQ       0.120000
     33 H18         -0.4310     1.7550    -0.0690 ha         1 HYQ       0.120000
     34 H2          -3.2710    -1.9580    -1.0770 hc         1 HYQ       0.090700
     35 H5          -3.8120     0.0790    -2.3600 hc         1 HYQ       0.073700
     36 H121        -5.6020    -1.0750    -1.0890 hc         1 HYQ       0.048325
     37 H122        -5.8930     0.6500    -1.1380 hc         1 HYQ       0.048325
     38 H81         -5.5840    -1.0090     1.2320 hc         1 HYQ       0.048325
     39 H82         -5.8850     0.7140     1.1820 hc         1 HYQ       0.048325
     40 H3          -3.7880     0.2330     2.4110 hc         1 HYQ       0.073700
     41 H71         -3.9690     2.3340     1.1140 hc         1 HYQ       0.048325
     42 H72         -2.3220     1.7810     1.1420 hc         1 HYQ       0.048325
     43 H111        -2.3300     1.7040    -1.2040 hc         1 HYQ       0.048325
     44 H112        -3.9740     2.2610    -1.2020 hc         1 HYQ       0.048325
@<TRIPOS>BOND
     1     1     2 1   
     2     1    20 1   
     3     1    24 1   
     4     1    27 1   
     5     2     3 2   
     6     2     4 1   
     7     4     5 1   
     8     4    18 1   
     9     5     6 ar  
    10     5    17 ar  
    11     6     7 ar  
    12     6    28 1   
    13     7     8 ar  
    14     7    29 1   
    15     8     9 1   
    16     8    12 ar  
    17     9    10 1   
    18     9    11 1   
    19    12    13 ar  
    20    12    17 ar  
    21    13    14 ar  
    22    13    30 1   
    23    14    15 ar  
    24    14    31 1   
    25    15    16 ar  
    26    15    32 1   
    27    16    17 ar  
    28    16    33 1   
    29    18    19 2   
    30    18    20 1   
    31    20    21 1   
    32    20    34 1   
    33    21    22 1   
    34    21    26 1   
    35    21    35 1   
    36    22    23 1   
    37    22    36 1   
    38    22    37 1   
    39    23    24 1   
    40    23    38 1   
    41    23    39 1   
    42    24    25 1   
    43    24    40 1   
    44    25    26 1   
    45    25    41 1   
    46    25    42 1   
    47    26    43 1   
    48    26    44 1   
@<TRIPOS>SUBSTRUCTURE
     1 HYQ         1 TEMP              0 ****  ****    0 ROOT
