@<TRIPOS>MOLECULE
HYQ
   44    48     1     0     0
SMALL
No Charge or Current Charge


@<TRIPOS>ATOM
      1 C1          -2.8960    -0.8340     0.9150 c5         1 HYQ      -0.144200
      2 C4          -1.4120    -0.5750     1.2400 c          1 HYQ       0.577000
      3 O10         -0.8950    -0.4210     2.3390 o          1 HYQ      -0.482000
      4 N9          -0.7210    -0.6880     0.0360 n          1 HYQ      -0.238000
      5 C14          0.7130    -0.6370    -0.0110 ca         1 HYQ       0.014000
      6 C16          1.4150    -1.8500    -0.1010 ca         1 HYQ      -0.111000
      7 C19          2.8150    -1.8630    -0.1290 ca         1 HYQ      -0.034000
      8 C20          3.5420    -0.6570    -0.0630 ca         1 HYQ      -0.150200
      9 N23          5.0290    -0.7400    -0.0650 no         1 HYQ       0.689200
     10 O26          5.6340    -0.2480     0.8970 o          1 HYQ      -0.392500
     11 O25          5.5590    -1.4810    -0.9030 o          1 HYQ      -0.392500
     12 C17          2.8480     0.5830     0.0050 ca         1 HYQ       0.011000
     13 C21          3.5390     1.8200     0.0210 ca         1 HYQ      -0.093000
     14 C24          2.8370     3.0340     0.0820 ca         1 HYQ      -0.088000
     15 C22          1.4380     3.0340     0.1170 ca         1 HYQ      -0.099000
     16 C18          0.7360     1.8200     0.0890 ca         1 HYQ      -0.088000
     17 C15          1.4260     0.5880     0.0330 ca         1 HYQ      -0.029000
     18 C6          -1.4710    -0.9910    -1.0980 c          1 HYQ       0.577000
     19 O13         -1.0100    -1.2670    -2.1970 o          1 HYQ      -0.482000
     20 C2          -2.9380    -1.0600    -0.6380 c5         1 HYQ      -0.144200
     21 C5          -3.8870    -0.0170    -1.3100 c6         1 HYQ      -0.043700
     22 C12         -5.3170    -0.2260    -0.7250 c6         1 HYQ      -0.077400
     23 C8          -5.3010    -0.0670     0.8320 c6         1 HYQ      -0.077400
     24 C3          -3.8720     0.3150     1.3280 c6         1 HYQ      -0.043700
     25 C7          -3.4590     1.6350     0.6090 c6         1 HYQ      -0.077400
     26 C11         -3.4220     1.4270    -0.9400 c6         1 HYQ      -0.077400
     27 H1          -3.2100    -1.7150     1.4860 hc         1 HYQ       0.090700
     28 H16          0.8710    -2.7910    -0.1410 ha         1 HYQ       0.135000
     29 H19          3.3360    -2.8170    -0.1860 ha         1 HYQ       0.148000
     30 H21          4.6230     1.8650    -0.0220 ha         1 HYQ       0.139000
     31 H24          3.3810     3.9760     0.0950 ha         1 HYQ       0.122000
     32 H22          0.8940     3.9760     0.1590 ha         1 HYQ       0.120000
     33 H18         -0.3470     1.8540     0.1010 ha         1 HYQ       0.120000
     34 H2          -3.3290    -2.0440    -0.9250 hc         1 HYQ       0.090700
     35 H5          -3.8960    -0.1490    -2.4020 hc         1 HYQ       0.073700
     36 H121        -5.6970    -1.2210    -0.9960 hc         1 HYQ       0.048325
     37 H122        -6.0140     0.4990    -1.1680 hc         1 HYQ       0.048325
     38 H81         -5.6270    -1.0020     1.3090 hc         1 HYQ       0.048325
     39 H82         -6.0250     0.7020     1.1380 hc         1 HYQ       0.048325
     40 H3          -3.8680     0.4540     2.4190 hc         1 HYQ       0.073700
     41 H71         -4.1750     2.4310     0.8580 hc         1 HYQ       0.048325
     42 H72         -2.4860     1.9870     0.9750 hc         1 HYQ       0.048325
     43 H111        -2.4110     1.6160    -1.3260 hc         1 HYQ       0.048325
     44 H112        -4.0730     2.1650    -1.4280 hc         1 HYQ       0.048325
@<TRIPOS>BOND
     1     1     2 1   
     2     1    20 1   
     3     1    24 1   
     4     1    27 1   
     5     2     3 2   
     6     2     4 1   
     7     4     5 1   
     8     4    18 1   
     9     5     6 ar  
    10     5    17 ar  
    11     6     7 ar  
    12     6    28 1   
    13     7     8 ar  
    14     7    29 1   
    15     8     9 1   
    16     8    12 ar  
    17     9    10 1   
    18     9    11 1   
    19    12    13 ar  
    20    12    17 ar  
    21    13    14 ar  
    22    13    30 1   
    23    14    15 ar  
    24    14    31 1   
    25    15    16 ar  
    26    15    32 1   
    27    16    17 ar  
    28    16    33 1   
    29    18    19 2   
    30    18    20 1   
    31    20    21 1   
    32    20    34 1   
    33    21    22 1   
    34    21    26 1   
    35    21    35 1   
    36    22    23 1   
    37    22    36 1   
    38    22    37 1   
    39    23    24 1   
    40    23    38 1   
    41    23    39 1   
    42    24    25 1   
    43    24    40 1   
    44    25    26 1   
    45    25    41 1   
    46    25    42 1   
    47    26    43 1   
    48    26    44 1   
@<TRIPOS>SUBSTRUCTURE
     1 HYQ         1 TEMP              0 ****  ****    0 ROOT
