@<TRIPOS>MOLECULE
HYR
   23    23     1     0     0
SMALL
No Charge or Current Charge


@<TRIPOS>ATOM
      1 C10        -10.0040    17.9650    72.5460 ca         1 HYR      -0.141000
      2 C11        -11.3420    18.0380    72.1250 ca         1 HYR      -0.072000
      3 C12        -11.7920    17.2170    71.0770 ca         1 HYR      -0.161000
      4 C2         -10.8840    17.8090    66.7920 cs         1 HYR       0.371200
      5 C4          -9.8180    15.6300    67.5720 c3         1 HYR       0.040000
      6 C5         -10.5980    14.7270    68.5600 c3         1 HYR       0.148600
      7 C7         -10.9120    16.3250    70.4410 ca         1 HYR       0.140100
      8 C8          -9.5690    16.2490    70.8730 ca         1 HYR      -0.161000
      9 C9          -9.1180    17.0710    71.9210 ca         1 HYR      -0.072000
     10 N3         -10.7000    16.4490    66.7230 ns         1 HYR      -0.393900
     11 O6         -11.4220    15.5400    69.4240 os         1 HYR      -0.343100
     12 S13        -10.0470    18.8370    67.8210 s          1 HYR      -0.550400
     13 H1          -9.6540    18.6000    73.3570 ha         1 HYR       0.114000
     14 H2         -12.0290    18.7290    72.6100 ha         1 HYR       0.111000
     15 H3         -12.8280    17.2740    70.7530 ha         1 HYR       0.116000
     16 H4         -11.6200    18.1640    66.0690 h5         1 HYR       0.039200
     17 H5          -9.2110    14.9900    66.9190 h1         1 HYR       0.080700
     18 H6          -9.1250    16.2740    68.1270 h1         1 HYR       0.080700
     19 H7         -11.2350    14.0490    67.9780 h1         1 HYR       0.058200
     20 H8          -9.9060    14.1010    69.1380 h1         1 HYR       0.058200
     21 H9          -8.8640    15.5620    70.4150 ha         1 HYR       0.116000
     22 H10         -8.0830    17.0120    72.2510 ha         1 HYR       0.111000
     23 H12        -11.2660    15.9610    66.0350 hn         1 HYR       0.309500
@<TRIPOS>BOND
     1     1     2 ar  
     2     1     9 ar  
     3     1    13 1   
     4     2     3 ar  
     5     2    14 1   
     6     3     7 ar  
     7     3    15 1   
     8     4    10 1   
     9     4    12 2   
    10     4    16 1   
    11     5     6 1   
    12     5    10 1   
    13     5    17 1   
    14     5    18 1   
    15     6    11 1   
    16     6    19 1   
    17     6    20 1   
    18     7     8 ar  
    19     7    11 1   
    20     8     9 ar  
    21     8    21 1   
    22     9    22 1   
    23    10    23 1   
@<TRIPOS>SUBSTRUCTURE
     1 HYR         1 TEMP              0 ****  ****    0 ROOT
