@<TRIPOS>MOLECULE
HYR
   23    23     1     0     0
SMALL
bcc


@<TRIPOS>ATOM
      1 C10        -10.0020    17.8840    72.6220 ca         1 HYR      -0.159000
      2 C11        -11.3270    17.9620    72.2080 ca         1 HYR      -0.090000
      3 C12        -11.7730    17.2220    71.1280 ca         1 HYR      -0.179000
      4 C2         -10.8520    17.7020    66.6660 cs         1 HYR       0.438200
      5 C4          -9.8180    15.6560    67.5730 c3         1 HYR       0.040000
      6 C5         -10.6240    14.8720    68.6000 c3         1 HYR       0.125400
      7 C7         -10.8960    16.3830    70.4390 ca         1 HYR       0.140100
      8 C8          -9.5670    16.2990    70.8480 ca         1 HYR      -0.179000
      9 C9          -9.1340    17.0510    71.9350 ca         1 HYR      -0.090000
     10 N3         -10.6650    16.3970    66.6680 ns         1 HYR      -0.460900
     11 O6         -11.4360    15.6930    69.4110 os         1 HYR      -0.319900
     12 S13        -10.1480    18.8340    67.6470 s          1 HYR      -0.550400
     13 H1          -9.6530    18.4650    73.4650 ha         1 HYR       0.132000
     14 H2         -12.0220    18.6080    72.7310 ha         1 HYR       0.129000
     15 H3         -12.8060    17.2880    70.8070 ha         1 HYR       0.134000
     16 H4         -11.5560    18.0110    65.8950 h5         1 HYR       0.039200
     17 H5          -9.2270    14.9440    66.9940 h1         1 HYR       0.080700
     18 H6          -9.1280    16.3540    68.0430 h1         1 HYR       0.080700
     19 H7         -11.3130    14.1980    68.0880 h1         1 HYR       0.058200
     20 H8          -9.9470    14.2490    69.1910 h1         1 HYR       0.058200
     21 H9          -8.8530    15.6640    70.3410 ha         1 HYR       0.134000
     22 H10         -8.0970    16.9780    72.2400 ha         1 HYR       0.129000
     23 H12        -11.1830    15.8600    65.9870 hn         1 HYR       0.309500
@<TRIPOS>BOND
     1     1     2 ar  
     2     1     9 ar  
     3     1    13 1   
     4     2     3 ar  
     5     2    14 1   
     6     3     7 ar  
     7     3    15 1   
     8     4    10 1   
     9     4    12 2   
    10     4    16 1   
    11     5     6 1   
    12     5    10 1   
    13     5    17 1   
    14     5    18 1   
    15     6    11 1   
    16     6    19 1   
    17     6    20 1   
    18     7     8 ar  
    19     7    11 1   
    20     8     9 ar  
    21     8    21 1   
    22     9    22 1   
    23    10    23 1   
@<TRIPOS>SUBSTRUCTURE
     1 HYR         1 TEMP              0 ****  ****    0 ROOT
