@<TRIPOS>MOLECULE
HYS
   49    50     1     0     0
SMALL
abcg2


@<TRIPOS>ATOM
      1 C01          7.4580    -0.5430     0.5370 ca         1 HYS       0.120000
      2 C02          7.9960    -0.5200    -0.7440 ca         1 HYS       0.117000
      3 C03          7.4010     0.2620    -1.7220 ca         1 HYS      -0.094000
      4 C04          6.2770     1.0120    -1.4180 ca         1 HYS      -0.101000
      5 C05          5.7270     0.9970    -0.1390 ca         1 HYS      -0.070300
      6 C06          6.3330     0.2100     0.8340 ca         1 HYS      -0.094000
      7 C07          4.4780     1.7700     0.1700 c3         1 HYS      -0.035100
      8 C08          3.2330     0.9100    -0.0380 c3         1 HYS       0.157800
      9 N09          2.0290     1.6690     0.2300 n7         1 HYS      -0.848400
     10 C10          0.8280     0.8860     0.0350 c3         1 HYS       0.123800
     11 C11         -0.4290     1.6920     0.3430 c3         1 HYS       0.171300
     12 C12         -1.6510     0.8660    -0.0280 c3         1 HYS       0.124600
     13 O13         -2.8070     1.6420     0.2200 os         1 HYS      -0.326100
     14 C14         -4.0100     1.1260    -0.0860 ca         1 HYS       0.150100
     15 C15         -5.1210     1.9120     0.2280 ca         1 HYS      -0.163500
     16 C16         -6.3950     1.4610    -0.0550 ca         1 HYS      -0.068500
     17 C17         -6.5900     0.2300    -0.6780 ca         1 HYS       0.189000
     18 C18         -5.4860    -0.5450    -1.0000 ca         1 HYS      -0.068500
     19 C19         -4.2030    -0.1130    -0.6940 ca         1 HYS      -0.163500
     20 N20         -7.8970    -0.2160    -1.0130 nu         1 HYS      -0.870100
     21 S21         -8.6110    -1.4170    -0.1130 s6         1 HYS       1.187100
     22 C22         -8.8390    -0.7560     1.5210 c3         1 HYS      -0.383100
     23 O23         -9.9140    -1.6400    -0.7170 o          1 HYS      -0.527500
     24 O24         -7.6610    -2.5140    -0.0270 o          1 HYS      -0.527500
     25 O25         -0.4750     2.1460     1.6720 oh         1 HYS      -0.623000
     26 CL1          9.3960    -1.4480    -1.1300 cl         1 HYS      -0.171000
     27 CL2          8.1820    -1.5020     1.7740 cl         1 HYS      -0.172000
     28 H1           7.8180     0.2850    -2.7190 ha         1 HYS       0.133000
     29 H2           5.8240     1.6200    -2.1900 ha         1 HYS       0.119000
     30 H3           5.9290     0.1840     1.8390 ha         1 HYS       0.133000
     31 H4           4.4970     2.1330     1.2000 hc         1 HYS       0.060200
     32 H5           4.4260     2.6460    -0.4810 hc         1 HYS       0.060200
     33 H6           3.2530     0.4850    -1.0540 h1         1 HYS       0.034700
     34 H7           3.2660     0.0590     0.6500 h1         1 HYS       0.034700
     35 H8           2.0030     2.4660    -0.3960 hn         1 HYS       0.411000
     36 H10          0.7490     0.4780    -0.9860 h1         1 HYS       0.034700
     37 H11          0.8660     0.0180     0.7040 h1         1 HYS       0.034700
     38 H12         -0.4290     2.5930    -0.2810 h1         1 HYS       0.083700
     39 H13         -1.5900     0.5850    -1.0850 h1         1 HYS       0.039200
     40 H14         -1.6800    -0.0600     0.5620 h1         1 HYS       0.039200
     41 H15         -4.9770     2.8740     0.7020 ha         1 HYS       0.129000
     42 H16         -7.2480     2.0770     0.2050 ha         1 HYS       0.128500
     43 H17         -5.6180    -1.4920    -1.5050 ha         1 HYS       0.128500
     44 H18         -3.3690    -0.7500    -0.9560 ha         1 HYS       0.129000
     45 H19         -8.5540     0.5220    -1.2420 hn         1 HYS       0.488000
     46 H20         -7.8760    -0.4530     1.9270 h1         1 HYS       0.102700
     47 H21         -9.5150     0.0940     1.4740 h1         1 HYS       0.102700
     48 H22         -9.2680    -1.5410     2.1420 h1         1 HYS       0.102700
     49 H23         -0.3480     1.3920     2.2580 ho         1 HYS       0.441000
@<TRIPOS>BOND
     1     1     2 ar  
     2     1     6 ar  
     3     1    27 1   
     4     2     3 ar  
     5     2    26 1   
     6     3     4 ar  
     7     3    28 1   
     8     4     5 ar  
     9     4    29 1   
    10     5     6 ar  
    11     5     7 1   
    12     6    30 1   
    13     7     8 1   
    14     7    31 1   
    15     7    32 1   
    16     8     9 1   
    17     8    33 1   
    18     8    34 1   
    19     9    10 1   
    20     9    35 1   
    21    10    11 1   
    22    10    36 1   
    23    10    37 1   
    24    11    12 1   
    25    11    25 1   
    26    11    38 1   
    27    12    13 1   
    28    12    39 1   
    29    12    40 1   
    30    13    14 1   
    31    14    15 ar  
    32    14    19 ar  
    33    15    16 ar  
    34    15    41 1   
    35    16    17 ar  
    36    16    42 1   
    37    17    18 ar  
    38    17    20 1   
    39    18    19 ar  
    40    18    43 1   
    41    19    44 1   
    42    20    21 1   
    43    20    45 1   
    44    21    22 1   
    45    21    23 2   
    46    21    24 2   
    47    22    46 1   
    48    22    47 1   
    49    22    48 1   
    50    25    49 1   
@<TRIPOS>SUBSTRUCTURE
     1 HYS         1 TEMP              0 ****  ****    0 ROOT
