@<TRIPOS>MOLECULE
HYS
   49    50     1     0     0
SMALL
No Charge or Current Charge


@<TRIPOS>ATOM
      1 C01          7.3550    -0.7200     1.0710 ca         1 HYS       0.120000
      2 C02          8.1770    -0.6190    -0.0700 ca         1 HYS       0.117000
      3 C03          7.8000     0.2220    -1.1300 ca         1 HYS      -0.094000
      4 C04          6.6060     0.9610    -1.0550 ca         1 HYS      -0.101000
      5 C05          5.7820     0.8660     0.0820 ca         1 HYS      -0.070300
      6 C06          6.1620     0.0210     1.1440 ca         1 HYS      -0.094000
      7 C07          4.4850     1.6620     0.1620 c3         1 HYS      -0.035100
      8 C08          3.2820     0.8570    -0.3650 c3         1 HYS       0.157800
      9 N09          2.0440     1.6530    -0.2590 n7         1 HYS      -0.848400
     10 C10          0.8100     0.9550    -0.7080 c3         1 HYS       0.123800
     11 C11         -0.4480     1.7890    -0.3490 c3         1 HYS       0.171300
     12 C12         -1.7540     0.9570    -0.4180 c3         1 HYS       0.124600
     13 O13         -2.8790     1.8370    -0.2190 os         1 HYS      -0.326100
     14 C14         -4.1810     1.3800    -0.2300 ca         1 HYS       0.150100
     15 C15         -5.2070     2.3150    -0.0270 ca         1 HYS      -0.163500
     16 C16         -6.5530     1.9070    -0.0290 ca         1 HYS      -0.068500
     17 C17         -6.8950     0.5570    -0.2290 ca         1 HYS       0.189000
     18 C18         -5.8610    -0.3810    -0.4410 ca         1 HYS      -0.068500
     19 C19         -4.5120     0.0240    -0.4400 ca         1 HYS      -0.163500
     20 N20         -8.2500     0.2040    -0.2220 nu         1 HYS      -0.870100
     21 S21         -8.9770    -1.2740     0.0190 s6         1 HYS       1.187100
     22 C22         -8.3590    -1.8410     1.5900 c3         1 HYS      -0.383100
     23 O23        -10.4030    -0.9740     0.1520 o          1 HYS      -0.527500
     24 O24         -8.4970    -2.1570    -1.0460 o          1 HYS      -0.527500
     25 O25         -0.2270     2.3180     0.9670 oh         1 HYS      -0.623000
     26 Cl1          9.6810    -1.5340    -0.1940 cl         1 HYS      -0.171000
     27 Cl2          7.7950    -1.7670     2.4220 cl         1 HYS      -0.172000
     28 H1           8.4330     0.2990    -2.0110 ha         1 HYS       0.133000
     29 H2           6.3220     1.6070    -1.8840 ha         1 HYS       0.119000
     30 H3           5.5320    -0.0650     2.0260 ha         1 HYS       0.133000
     31 H4           4.2900     1.9590     1.2000 hc         1 HYS       0.060200
     32 H5           4.5780     2.5920    -0.4120 hc         1 HYS       0.060200
     33 H6           3.4690     0.5760    -1.4100 h1         1 HYS       0.034700
     34 H7           3.1910    -0.0680     0.2200 h1         1 HYS       0.034700
     35 H8           2.1640     2.5000    -0.8330 hn         1 HYS       0.411000
     36 H10          0.8330     0.7720    -1.7910 h1         1 HYS       0.034700
     37 H11          0.7330    -0.0220    -0.2090 h1         1 HYS       0.034700
     38 H12         -0.5230     2.6100    -1.0750 h1         1 HYS       0.083700
     39 H13         -1.8180     0.4750    -1.4020 h1         1 HYS       0.039200
     40 H14         -1.7310     0.1730     0.3510 h1         1 HYS       0.039200
     41 H15         -4.9580     3.3610     0.1310 ha         1 HYS       0.129000
     42 H16         -7.3340     2.6470     0.1290 ha         1 HYS       0.128500
     43 H17         -6.0860    -1.4280    -0.6130 ha         1 HYS       0.128500
     44 H18         -3.7440    -0.7250    -0.6050 ha         1 HYS       0.129000
     45 H19         -8.9350     0.9000     0.0450 hn         1 HYS       0.488000
     46 H20         -7.2740    -1.9490     1.5050 h1         1 HYS       0.102700
     47 H21         -8.6270    -1.0900     2.3400 h1         1 HYS       0.102700
     48 H22         -8.8370    -2.8020     1.8020 h1         1 HYS       0.102700
     49 H23          0.7560     2.2550     1.0490 ho         1 HYS       0.441000
@<TRIPOS>BOND
     1     1     2 ar  
     2     1     6 ar  
     3     1    27 1   
     4     2     3 ar  
     5     2    26 1   
     6     3     4 ar  
     7     3    28 1   
     8     4     5 ar  
     9     4    29 1   
    10     5     6 ar  
    11     5     7 1   
    12     6    30 1   
    13     7     8 1   
    14     7    31 1   
    15     7    32 1   
    16     8     9 1   
    17     8    33 1   
    18     8    34 1   
    19     9    10 1   
    20     9    35 1   
    21    10    11 1   
    22    10    36 1   
    23    10    37 1   
    24    11    12 1   
    25    11    25 1   
    26    11    38 1   
    27    12    13 1   
    28    12    39 1   
    29    12    40 1   
    30    13    14 1   
    31    14    15 ar  
    32    14    19 ar  
    33    15    16 ar  
    34    15    41 1   
    35    16    17 ar  
    36    16    42 1   
    37    17    18 ar  
    38    17    20 1   
    39    18    19 ar  
    40    18    43 1   
    41    19    44 1   
    42    20    21 1   
    43    20    45 1   
    44    21    22 1   
    45    21    23 2   
    46    21    24 2   
    47    22    46 1   
    48    22    47 1   
    49    22    48 1   
    50    25    49 1   
@<TRIPOS>SUBSTRUCTURE
     1 HYS         1 TEMP              0 ****  ****    0 ROOT
