@<TRIPOS>MOLECULE
HYT
   36    38     1     0     0
SMALL
No Charge or Current Charge


@<TRIPOS>ATOM
      1 C01         -4.0300    -0.2970    -0.2190 cc         1 HYT       0.050500
      2 C02         -2.6450    -0.4010    -0.7350 c          1 HYT       0.564600
      3 N03         -1.6840    -0.0190     0.1900 ns         1 HYT      -0.138000
      4 O05         -2.3840    -0.7650    -1.8790 o          1 HYT      -0.599100
      5 C06         -5.1370    -0.6250    -1.0110 cc         1 HYT       0.516300
      6 O07         -5.0680    -1.0560    -2.2830 oh         1 HYT      -0.608300
      7 N08         -6.2670    -0.4690    -0.3830 nd         1 HYT      -0.535800
      8 N09         -5.7980    -0.0250     0.8490 na         1 HYT       0.274600
      9 C10         -6.7110     0.3090     1.9500 c3         1 HYT       0.084900
     10 N14         -4.4180     0.0940     0.9820 nd         1 HYT      -0.462800
     11 C15          2.6040     0.0010     0.0340 cp         1 HYT      -0.069000
     12 C16          1.8690     1.0670     0.6160 ca         1 HYT       0.160000
     13 F17          2.5200     2.1230     1.1590 f          1 HYT      -0.143000
     14 C18          0.4610     1.0390     0.6630 ca         1 HYT       0.138000
     15 F19         -0.2080     2.0720     1.2300 f          1 HYT      -0.141000
     16 C20         -0.2610    -0.0410     0.1190 ca         1 HYT      -0.080000
     17 C21          0.4600    -1.1210    -0.4430 ca         1 HYT       0.138000
     18 F22         -0.1890    -2.2180    -0.8980 f          1 HYT      -0.141000
     19 C23          1.8690    -1.0960    -0.4860 ca         1 HYT       0.160000
     20 F24          2.5220    -2.1410    -1.0490 f          1 HYT      -0.143000
     21 C25          6.9370     0.0820    -0.1060 ca         1 HYT      -0.094000
     22 C27          6.1970     1.1700    -0.5960 ca         1 HYT      -0.111000
     23 C29          4.7920     1.1430    -0.5500 ca         1 HYT      -0.078000
     24 C31          4.1000     0.0280    -0.0140 cp         1 HYT      -0.052000
     25 C32          4.8670    -1.0590     0.4750 ca         1 HYT      -0.078000
     26 C34          6.2720    -1.0330     0.4300 ca         1 HYT      -0.111000
     27 H1          -2.0620     0.3330     1.0620 hn         1 HYT       0.189000
     28 H3          -7.6090    -0.3160     1.8880 h1         1 HYT       0.070367
     29 H4          -6.2120     0.1320     2.9090 h1         1 HYT       0.070367
     30 H5          -6.9950     1.3650     1.8770 h1         1 HYT       0.070367
     31 H6           8.0250     0.1020    -0.1410 ha         1 HYT       0.116000
     32 H7           6.7100     2.0330    -1.0130 ha         1 HYT       0.117500
     33 H8           4.2320     1.9890    -0.9400 ha         1 HYT       0.119000
     34 H9           4.3660    -1.9250     0.9010 ha         1 HYT       0.119000
     35 H10          6.8430    -1.8760     0.8120 ha         1 HYT       0.117500
     36 H11         -4.1010    -1.0700    -2.4840 ho         1 HYT       0.510000
@<TRIPOS>BOND
     1     1     2 1   
     2     1     5 1   
     3     1    10 2   
     4     2     3 1   
     5     2     4 2   
     6     3    16 1   
     7     3    27 1   
     8     5     6 1   
     9     5     7 2   
    10     6    36 1   
    11     7     8 1   
    12     8     9 1   
    13     8    10 1   
    14     9    28 1   
    15     9    29 1   
    16     9    30 1   
    17    11    12 ar  
    18    11    19 ar  
    19    11    24 1   
    20    12    13 1   
    21    12    14 ar  
    22    14    15 1   
    23    14    16 ar  
    24    16    17 ar  
    25    17    18 1   
    26    17    19 ar  
    27    19    20 1   
    28    21    22 ar  
    29    21    26 ar  
    30    21    31 1   
    31    22    23 ar  
    32    22    32 1   
    33    23    24 ar  
    34    23    33 1   
    35    24    25 ar  
    36    25    26 ar  
    37    25    34 1   
    38    26    35 1   
@<TRIPOS>SUBSTRUCTURE
     1 HYT         1 TEMP              0 ****  ****    0 ROOT
