@<TRIPOS>MOLECULE
HYT
   36    38     1     0     0
SMALL
bcc


@<TRIPOS>ATOM
      1 C01         -3.8980    -0.1880    -0.2350 cc         1 HYT       0.050500
      2 C02         -2.4730    -0.2140    -0.5340 c          1 HYT       0.631600
      3 N03         -1.6370    -0.1130     0.5270 ns         1 HYT      -0.464100
      4 O05         -2.0880    -0.3190    -1.6900 o          1 HYT      -0.599100
      5 C06         -4.9440    -0.2830    -1.1670 cc         1 HYT       0.516300
      6 O07         -4.9050    -0.4180    -2.4820 oh         1 HYT      -0.569300
      7 N08         -6.0860    -0.2200    -0.5140 nd         1 HYT      -0.535800
      8 N09         -5.7210    -0.0930     0.7500 na         1 HYT       0.303900
      9 C10         -6.7020     0.0180     1.8050 c3         1 HYT       0.055600
     10 N14         -4.4490    -0.0690     0.9700 nd         1 HYT      -0.462800
     11 C15          2.5600    -0.0280     0.1120 cp         1 HYT      -0.069000
     12 C16          1.8620     1.0380     0.6570 ca         1 HYT       0.124900
     13 F17          2.5230     2.1150     1.0770 f          1 HYT      -0.107900
     14 C18          0.4870     1.0160     0.7790 ca         1 HYT       0.102900
     15 F19         -0.1450     2.0640     1.2990 f          1 HYT      -0.105900
     16 C20         -0.2480    -0.0920     0.3800 ca         1 HYT       0.012600
     17 C21          0.4440    -1.1710    -0.1510 ca         1 HYT       0.102900
     18 F22         -0.2170    -2.2620    -0.5180 f          1 HYT      -0.105900
     19 C23          1.8170    -1.1270    -0.2930 ca         1 HYT       0.124900
     20 F24          2.4350    -2.1770    -0.8320 f          1 HYT      -0.107900
     21 C25          6.8040     0.0500    -0.2830 ca         1 HYT      -0.112000
     22 C27          6.0250     0.9770    -0.9630 ca         1 HYT      -0.129000
     23 C29          4.6440     0.9560    -0.8340 ca         1 HYT      -0.096000
     24 C31          4.0320     0.0010    -0.0250 cp         1 HYT      -0.052000
     25 C32          4.8160    -0.9280     0.6550 ca         1 HYT      -0.096000
     26 C34          6.1970    -0.9010     0.5270 ca         1 HYT      -0.129000
     27 H1          -2.0290     0.0510     1.4440 hn         1 HYT       0.355500
     28 H3          -7.3600    -0.8470     1.7820 h1         1 HYT       0.070367
     29 H4          -6.1780     0.0560     2.7530 h1         1 HYT       0.070367
     30 H5          -7.2870     0.9250     1.6720 h1         1 HYT       0.070367
     31 H6           7.8810     0.0680    -0.3840 ha         1 HYT       0.134000
     32 H7           6.4940     1.7190    -1.5950 ha         1 HYT       0.135500
     33 H8           4.0420     1.6740    -1.3750 ha         1 HYT       0.137000
     34 H9           4.3490    -1.6640     1.2980 ha         1 HYT       0.137000
     35 H10          6.7990    -1.6240     1.0620 ha         1 HYT       0.135500
     36 H11         -3.9770    -0.4590    -2.7600 ho         1 HYT       0.471000
@<TRIPOS>BOND
     1     1     2 1   
     2     1     5 1   
     3     1    10 2   
     4     2     3 1   
     5     2     4 2   
     6     3    16 1   
     7     3    27 1   
     8     5     6 1   
     9     5     7 2   
    10     6    36 1   
    11     7     8 1   
    12     8     9 1   
    13     8    10 1   
    14     9    28 1   
    15     9    29 1   
    16     9    30 1   
    17    11    12 ar  
    18    11    19 ar  
    19    11    24 1   
    20    12    13 1   
    21    12    14 ar  
    22    14    15 1   
    23    14    16 ar  
    24    16    17 ar  
    25    17    18 1   
    26    17    19 ar  
    27    19    20 1   
    28    21    22 ar  
    29    21    26 ar  
    30    21    31 1   
    31    22    23 ar  
    32    22    32 1   
    33    23    24 ar  
    34    23    33 1   
    35    24    25 ar  
    36    25    26 ar  
    37    25    34 1   
    38    26    35 1   
@<TRIPOS>SUBSTRUCTURE
     1 HYT         1 TEMP              0 ****  ****    0 ROOT
