@<TRIPOS>MOLECULE
HYV
   60    64     1     0     0
SMALL
abcg2


@<TRIPOS>ATOM
      1 C10         -3.0850     1.9640    -2.0450 c6         1 HYV       0.097000
      2 C13         -0.4240     2.4660     0.6540 c6         1 HYV      -0.136700
      3 C15          2.0430     2.7190    -0.0330 c6         1 HYV       0.215300
      4 C17          3.4920     0.8260     0.2290 cc         1 HYV       0.688300
      5 C20          5.4890    -0.4640     0.1740 cc         1 HYV       0.495900
      6 C22          7.8020    -1.1710    -0.1600 cc         1 HYV      -0.171500
      7 C24          7.5790    -3.3250     0.4520 cd         1 HYV      -0.170500
      8 C28         -0.0590     1.0550     1.1300 c6         1 HYV      -0.072400
      9 C01         -7.8560    -2.5490     1.6610 ca         1 HYV      -0.111000
     10 C02         -8.2390    -1.6530     0.6690 ca         1 HYV      -0.108500
     11 C03         -7.3320    -1.2640    -0.3060 ca         1 HYV      -0.109500
     12 C04         -6.0280    -1.7580    -0.3110 ca         1 HYV      -0.080300
     13 C05         -5.6570    -2.6550     0.6880 ca         1 HYV      -0.109500
     14 C06         -6.5620    -3.0490     1.6670 ca         1 HYV      -0.108500
     15 C07         -5.0440    -1.3070    -1.3540 c3         1 HYV      -0.028100
     16 C08         -4.5420     0.1240    -1.1360 c6         1 HYV      -0.057700
     17 C09         -3.6270     0.5610    -2.2770 c6         1 HYV      -0.093900
     18 N11         -2.3930     2.0490    -0.7680 n          1 HYV      -0.412800
     19 C12         -1.0990     2.4360    -0.7120 c          1 HYV       0.607100
     20 C14          0.8390     3.3260     0.6700 c6         1 HYV      -0.072400
     21 N16          2.2560     1.3330     0.3780 nh         1 HYV      -0.752300
     22 N18          4.5540     1.5170    -0.0650 nd         1 HYV      -0.402000
     23 N19          5.6860     0.7760    -0.0760 nd         1 HYV      -0.324000
     24 N21          6.4940    -1.4120     0.1950 na         1 HYV       0.019500
     25 C23          8.4940    -2.3360    -0.0100 cd         1 HYV      -0.170500
     26 C25          6.3590    -2.7290     0.5690 cc         1 HYV      -0.171500
     27 S26          3.8290    -0.8800     0.4700 ss         1 HYV      -0.336800
     28 C27          1.0940     0.4590     0.3420 c6         1 HYV       0.215300
     29 O29         -0.4750     2.7420    -1.7230 o          1 HYV      -0.607100
     30 C30         -3.2390     1.6880     0.3570 c6         1 HYV       0.097000
     31 C31         -3.8050     0.2830     0.1910 c6         1 HYV      -0.093900
     32 H1          -2.4100     2.2590    -2.8420 h1         1 HYV       0.054450
     33 H2          -3.9170     2.6790    -2.0360 h1         1 HYV       0.054450
     34 H3          -1.1120     2.9040     1.3800 hc         1 HYV       0.064700
     35 H4           1.9300     2.7700    -1.1180 h1         1 HYV       0.063450
     36 H5           2.9300     3.2900     0.2300 h1         1 HYV       0.063450
     37 H7           7.7980    -4.3570     0.6730 ha         1 HYV       0.135500
     38 H8           0.2240     1.1050     2.1840 hc         1 HYV       0.056700
     39 H9          -0.9060     0.3710     1.0630 hc         1 HYV       0.056700
     40 H10         -8.5640    -2.8560     2.4200 ha         1 HYV       0.113000
     41 H11         -9.2480    -1.2600     0.6540 ha         1 HYV       0.113000
     42 H12         -7.6420    -0.5690    -1.0790 ha         1 HYV       0.110000
     43 H13         -4.6480    -3.0510     0.7000 ha         1 HYV       0.110000
     44 H14         -6.2540    -3.7480     2.4350 ha         1 HYV       0.113000
     45 H15         -4.1860    -1.9850    -1.3680 hc         1 HYV       0.049700
     46 H16         -5.5050    -1.3660    -2.3450 hc         1 HYV       0.049700
     47 H17         -5.4110     0.7960    -1.1240 hc         1 HYV       0.050700
     48 H18         -4.1690     0.5440    -3.2260 hc         1 HYV       0.050950
     49 H19         -2.7930    -0.1420    -2.3700 hc         1 HYV       0.050950
     50 H20          0.6480     4.3090     0.2370 hc         1 HYV       0.056700
     51 H21          1.0990     3.4960     1.7180 hc         1 HYV       0.056700
     52 H22          9.5450    -2.4700    -0.2110 ha         1 HYV       0.135500
     53 H23          5.4140    -3.1350     0.8940 h4         1 HYV       0.158500
     54 H24          1.3450    -0.5000     0.7960 h1         1 HYV       0.063450
     55 H25          0.7990     0.2540    -0.6940 h1         1 HYV       0.063450
     56 H26         -2.6950     1.7560     1.2940 h1         1 HYV       0.054450
     57 H27         -4.0620     2.4090     0.4170 h1         1 HYV       0.054450
     58 H28         -4.4740     0.0790     1.0300 hc         1 HYV       0.050950
     59 H29         -2.9900    -0.4490     0.2460 hc         1 HYV       0.050950
     60 H6           8.1160    -0.1960    -0.4890 h4         1 HYV       0.158500
@<TRIPOS>BOND
     1     1    17 1   
     2     1    18 1   
     3     1    32 1   
     4     1    33 1   
     5     2     8 1   
     6     2    19 1   
     7     2    20 1   
     8     2    34 1   
     9     3    20 1   
    10     3    21 1   
    11     3    35 1   
    12     3    36 1   
    13     4    21 1   
    14     4    22 2   
    15     4    27 1   
    16     5    23 2   
    17     5    24 1   
    18     5    27 1   
    19     6    24 1   
    20     6    25 2   
    21     6    60 1   
    22     7    25 1   
    23     7    26 2   
    24     7    37 1   
    25     8    28 1   
    26     8    38 1   
    27     8    39 1   
    28     9    10 ar  
    29     9    14 ar  
    30     9    40 1   
    31    10    11 ar  
    32    10    41 1   
    33    11    12 ar  
    34    11    42 1   
    35    12    13 ar  
    36    12    15 1   
    37    13    14 ar  
    38    13    43 1   
    39    14    44 1   
    40    15    16 1   
    41    15    45 1   
    42    15    46 1   
    43    16    17 1   
    44    16    31 1   
    45    16    47 1   
    46    17    48 1   
    47    17    49 1   
    48    18    19 1   
    49    18    30 1   
    50    19    29 2   
    51    20    50 1   
    52    20    51 1   
    53    21    28 1   
    54    22    23 1   
    55    24    26 1   
    56    25    52 1   
    57    26    53 1   
    58    28    54 1   
    59    28    55 1   
    60    30    31 1   
    61    30    56 1   
    62    30    57 1   
    63    31    58 1   
    64    31    59 1   
@<TRIPOS>SUBSTRUCTURE
     1 HYV         1 TEMP              0 ****  ****    0 ROOT
