@<TRIPOS>MOLECULE
HYV
   60    64     1     0     0
SMALL
No Charge or Current Charge


@<TRIPOS>ATOM
      1 C10         -3.2320     1.6890    -1.9780 c6         1 HYV       0.097000
      2 C13          0.0310     1.6790     0.2360 c6         1 HYV      -0.136700
      3 C15          2.2090     2.7270    -0.6620 c6         1 HYV       0.215300
      4 C17          3.9820     0.9690    -0.3500 cc         1 HYV       0.688300
      5 C20          5.9370    -0.0760     0.4020 cc         1 HYV       0.495900
      6 C22          8.1890    -0.4240     1.3280 cc         1 HYV      -0.171500
      7 C24          8.1550    -2.7020     1.1670 cd         1 HYV      -0.170500
      8 C28          0.6450     0.2760    -0.0570 c6         1 HYV      -0.072400
      9 C01         -8.3570    -2.1360     2.2270 ca         1 HYV      -0.111000
     10 C02         -8.5510    -0.8540     1.6880 ca         1 HYV      -0.108500
     11 C03         -7.8310    -0.4530     0.5490 ca         1 HYV      -0.109500
     12 C04         -6.9120    -1.3320    -0.0570 ca         1 HYV      -0.080300
     13 C05         -6.7220    -2.6180     0.4880 ca         1 HYV      -0.109500
     14 C06         -7.4420    -3.0180     1.6270 ca         1 HYV      -0.108500
     15 C07         -6.1280    -0.8920    -1.2890 c3         1 HYV      -0.028100
     16 C08         -5.0120     0.1510    -0.9830 c6         1 HYV      -0.057700
     17 C09         -4.3110     0.6230    -2.2730 c6         1 HYV      -0.093900
     18 N11         -2.2440     1.3160    -0.9180 n          1 HYV      -0.412800
     19 C12         -1.0500     2.0770    -0.8130 c          1 HYV       0.607100
     20 C14          1.1510     2.7380     0.4740 c6         1 HYV      -0.072400
     21 N16          2.7430     1.3460    -0.8430 nh         1 HYV      -0.752300
     22 N18          4.8830     1.8480     0.0850 nd         1 HYV      -0.402000
     23 N19          6.0430     1.2370     0.5320 nd         1 HYV      -0.324000
     24 N21          6.9970    -0.9130     0.7940 na         1 HYV       0.019500
     25 C23          8.9130    -1.5660     1.5600 cd         1 HYV      -0.170500
     26 C25          6.9370    -2.3010     0.6790 cc         1 HYV      -0.171500
     27 S26          4.4630    -0.7040    -0.2590 ss         1 HYV      -0.336800
     28 C27          1.6850     0.3580    -1.2010 c6         1 HYV       0.215300
     29 O29         -0.8210     2.9720    -1.6190 o          1 HYV      -0.607100
     30 C30         -2.8370     0.6390     0.2810 c6         1 HYV       0.097000
     31 C31         -3.9320    -0.4060    -0.0310 c6         1 HYV      -0.093900
     32 H1          -2.7000     1.9040    -2.9160 h1         1 HYV       0.054450
     33 H2          -3.7290     2.6210    -1.6710 h1         1 HYV       0.054450
     34 H3          -0.5100     1.5390     1.1790 hc         1 HYV       0.064700
     35 H4           1.7510     3.0730    -1.5990 h1         1 HYV       0.063450
     36 H5           3.0020     3.4500    -0.4230 h1         1 HYV       0.063450
     37 H7           8.4870    -3.7340     1.2410 ha         1 HYV       0.135500
     38 H8           1.1370    -0.1090     0.8470 hc         1 HYV       0.056700
     39 H9          -0.1330    -0.4520    -0.3190 hc         1 HYV       0.056700
     40 H10         -8.9140    -2.4460     3.1090 ha         1 HYV       0.113000
     41 H11         -9.2590    -0.1700     2.1510 ha         1 HYV       0.113000
     42 H12         -7.9870     0.5410     0.1370 ha         1 HYV       0.110000
     43 H13         -6.0140    -3.3060     0.0330 ha         1 HYV       0.110000
     44 H14         -7.2910    -4.0110     2.0450 ha         1 HYV       0.113000
     45 H15         -5.6880    -1.7660    -1.7850 hc         1 HYV       0.049700
     46 H16         -6.8300    -0.4680    -2.0180 hc         1 HYV       0.049700
     47 H17         -5.5000     1.0140    -0.5080 hc         1 HYV       0.050700
     48 H18         -5.0460     1.0370    -2.9760 hc         1 HYV       0.050950
     49 H19         -3.8440    -0.2330    -2.7790 hc         1 HYV       0.050950
     50 H20          0.7170     3.7420     0.5760 hc         1 HYV       0.056700
     51 H21          1.6550     2.5240     1.4260 hc         1 HYV       0.056700
     52 H22          9.9150    -1.5940     1.9810 ha         1 HYV       0.135500
     53 H23          6.0940    -2.8580     0.2880 h4         1 HYV       0.158500
     54 H24          2.0910    -0.6420    -1.4030 h1         1 HYV       0.063450
     55 H25          1.1790     0.6750    -2.1250 h1         1 HYV       0.063450
     56 H26         -2.0590     0.1220     0.8570 h1         1 HYV       0.054450
     57 H27         -3.2620     1.4130     0.9360 h1         1 HYV       0.054450
     58 H28         -4.3860    -0.7390     0.9120 hc         1 HYV       0.050950
     59 H29         -3.4650    -1.2940    -0.4800 hc         1 HYV       0.050950
     60 H6           8.4120     0.6250     1.4900 h4         1 HYV       0.158500
@<TRIPOS>BOND
     1     1    17 1   
     2     1    18 1   
     3     1    32 1   
     4     1    33 1   
     5     2     8 1   
     6     2    19 1   
     7     2    20 1   
     8     2    34 1   
     9     3    20 1   
    10     3    21 1   
    11     3    35 1   
    12     3    36 1   
    13     4    21 1   
    14     4    22 2   
    15     4    27 1   
    16     5    23 2   
    17     5    24 1   
    18     5    27 1   
    19     6    24 1   
    20     6    25 2   
    21     6    60 1   
    22     7    25 1   
    23     7    26 2   
    24     7    37 1   
    25     8    28 1   
    26     8    38 1   
    27     8    39 1   
    28     9    10 ar  
    29     9    14 ar  
    30     9    40 1   
    31    10    11 ar  
    32    10    41 1   
    33    11    12 ar  
    34    11    42 1   
    35    12    13 ar  
    36    12    15 1   
    37    13    14 ar  
    38    13    43 1   
    39    14    44 1   
    40    15    16 1   
    41    15    45 1   
    42    15    46 1   
    43    16    17 1   
    44    16    31 1   
    45    16    47 1   
    46    17    48 1   
    47    17    49 1   
    48    18    19 1   
    49    18    30 1   
    50    19    29 2   
    51    20    50 1   
    52    20    51 1   
    53    21    28 1   
    54    22    23 1   
    55    24    26 1   
    56    25    52 1   
    57    26    53 1   
    58    28    54 1   
    59    28    55 1   
    60    30    31 1   
    61    30    56 1   
    62    30    57 1   
    63    31    58 1   
    64    31    59 1   
@<TRIPOS>SUBSTRUCTURE
     1 HYV         1 TEMP              0 ****  ****    0 ROOT
