@<TRIPOS>MOLECULE
HYW
   82    87     1     0     0
SMALL
No Charge or Current Charge


@<TRIPOS>ATOM
      1 N1           5.5630    -0.1110    -0.0890 na         1 HYW       0.180000
      2 N3           0.9320    -1.2110     0.2160 ns         1 HYW      -0.521900
      3 C4           4.5870     1.4100    -1.7220 ca         1 HYW      -0.107000
      4 C5           4.3420     2.7200    -2.1710 ca         1 HYW      -0.104000
      5 C6           4.8360     3.8220    -1.4490 ca         1 HYW      -0.072300
      6 C7           5.5770     3.6030    -0.2720 ca         1 HYW      -0.104000
      7 C8           5.8230     2.2940     0.1780 ca         1 HYW      -0.107000
      8 C10          7.8060    -2.7740     0.7570 c3         1 HYW      -0.072300
      9 C13          7.6840    -3.2540     2.2280 c3         1 HYW      -0.080100
     10 C15         -0.3360    -1.9310     0.3800 c6         1 HYW       0.170000
     11 C17         -1.5320    -0.2790     1.8970 c6         1 HYW      -0.082400
     12 C20         -1.2820    -1.4880    -0.7450 ca         1 HYW      -0.104300
     13 C21         -1.0140    -1.9460    -2.0510 ca         1 HYW      -0.095000
     14 C22         -1.8280    -1.5620    -3.1260 ca         1 HYW      -0.104000
     15 C24         -3.1950    -0.2460    -1.6090 ca         1 HYW      -0.102000
     16 C26         -5.4820     0.7870     0.7120 cc         1 HYW      -0.212000
     17 C28         -7.9350     0.7330     0.4970 cc         1 HYW       0.321800
     18 C9           4.5680     5.2390    -1.9330 c3         1 HYW      -0.048800
     19 C3           5.3270     1.1890    -0.5420 ca         1 HYW       0.007800
     20 N            6.8520    -0.5660     0.0610 nc         1 HYW      -0.509800
     21 C2           6.6510    -1.8190     0.4470 cd         1 HYW       0.278300
     22 C12          9.1980    -2.1010     0.5710 c3         1 HYW      -0.080100
     23 C11          7.7190    -3.9980    -0.1920 c3         1 HYW      -0.080100
     24 C1           5.2700    -2.1430     0.5290 cd         1 HYW      -0.222000
     25 C            4.5590    -1.0330     0.1770 cc         1 HYW       0.022600
     26 N2           3.1790    -0.8500     0.1200 ns         1 HYW      -0.424100
     27 C14          2.1770    -1.7560     0.3700 c          1 HYW       0.668100
     28 O1           2.3560    -2.9180     0.6940 o          1 HYW      -0.614100
     29 C16         -0.9170    -1.6890     1.7900 c6         1 HYW      -0.086400
     30 C18         -2.7200    -0.1280     0.9220 c6         1 HYW       0.221600
     31 O           -3.1220     1.2640     0.9180 os         1 HYW      -0.340100
     32 C25         -4.4240     1.6980     0.8180 cd         1 HYW       0.118100
     33 C33         -4.6040     3.1310     0.8420 cd         1 HYW      -0.111000
     34 C32         -5.8760     3.6470     0.7610 cc         1 HYW      -0.045000
     35 C27         -6.9570     2.7320     0.6460 cc         1 HYW      -0.128000
     36 N5          -8.2590     2.9280     0.5600 nd         1 HYW      -0.087000
     37 N6          -8.8730     1.6790     0.4740 nd         1 HYW      -0.358700
     38 C31         -8.1220    -1.3970     1.8520 c3         1 HYW      -0.086100
     39 C30         -9.4520    -1.1550    -0.3140 c3         1 HYW      -0.086100
     40 N4          -6.7400     1.3950     0.6040 na         1 HYW       0.038200
     41 C19         -2.3850    -0.6200    -0.5110 ca         1 HYW      -0.094300
     42 C23         -2.9180    -0.7110    -2.9040 ca         1 HYW      -0.103000
     43 H1           0.8810    -0.2430    -0.0690 hn         1 HYW       0.311500
     44 H2           4.2070     0.5660    -2.2950 ha         1 HYW       0.132000
     45 H3           3.7690     2.8760    -3.0820 ha         1 HYW       0.117500
     46 H4           5.9630     4.4470     0.2960 ha         1 HYW       0.117500
     47 H5           6.3960     2.1360     1.0890 ha         1 HYW       0.132000
     48 H6           8.5020    -3.9380     2.4880 hc         1 HYW       0.036700
     49 H7           7.7210    -2.4020     2.9180 hc         1 HYW       0.036700
     50 H8           6.7380    -3.7830     2.3950 hc         1 HYW       0.036700
     51 H9          -0.1450    -3.0090     0.2670 h1         1 HYW       0.097700
     52 H10         -1.8760    -0.0990     2.9240 hc         1 HYW       0.058700
     53 H11         -0.7710     0.4830     1.6830 hc         1 HYW       0.058700
     54 H12         -0.1650    -2.6030    -2.2340 ha         1 HYW       0.130000
     55 H13         -1.6120    -1.9210    -4.1300 ha         1 HYW       0.121000
     56 H14         -4.0470     0.4110    -1.4730 ha         1 HYW       0.119000
     57 H15         -5.4260    -0.2910     0.6850 h4         1 HYW       0.156000
     58 H16          3.6320     5.6240    -1.5120 hc         1 HYW       0.045367
     59 H17          5.3740     5.9220    -1.6400 hc         1 HYW       0.045367
     60 H18          4.4850     5.2790    -3.0260 hc         1 HYW       0.045367
     61 H19          9.3360    -1.7590    -0.4630 hc         1 HYW       0.036700
     62 H20          9.3110    -1.2360     1.2360 hc         1 HYW       0.036700
     63 H21         10.0070    -2.8050     0.7990 hc         1 HYW       0.036700
     64 H22          7.7810    -3.6810    -1.2400 hc         1 HYW       0.036700
     65 H23          8.5370    -4.7030    -0.0010 hc         1 HYW       0.036700
     66 H24          6.7730    -4.5370    -0.0580 hc         1 HYW       0.036700
     67 H25          4.8680    -3.1040     0.8240 ha         1 HYW       0.164000
     68 H26          2.8500     0.0710    -0.1370 hn         1 HYW       0.325500
     69 H27         -1.6890    -2.4430     1.9990 hc         1 HYW       0.061700
     70 H28         -0.1360    -1.8270     2.5500 hc         1 HYW       0.061700
     71 H29         -3.5260    -0.7510     1.3290 h1         1 HYW       0.053700
     72 H30         -3.7470     3.7900     0.9300 ha         1 HYW       0.139000
     73 H31         -6.0640     4.7160     0.7850 ha         1 HYW       0.151000
     74 H32         -7.3320    -1.2090    -0.1320 hc         1 HYW       0.051700
     75 H33         -8.2250    -2.4880     1.7950 hc         1 HYW       0.043200
     76 H34         -7.1740    -1.1730     2.3550 hc         1 HYW       0.043200
     77 H35         -8.9380    -1.0060     2.4710 hc         1 HYW       0.043200
     78 H36         -9.4510    -0.7310    -1.3250 hc         1 HYW       0.043200
     79 H37         -9.5360    -2.2450    -0.4040 hc         1 HYW       0.043200
     80 H38        -10.3400    -0.7870     0.2140 hc         1 HYW       0.043200
     81 H39         -3.5520    -0.4110    -3.7360 ha         1 HYW       0.119000
     82 C29         -8.1560    -0.7680     0.4400 c3         1 HYW      -0.061000
@<TRIPOS>BOND
     1     1    19 1   
     2     1    20 1   
     3     1    25 1   
     4     2    10 1   
     5     2    27 1   
     6     2    43 1   
     7     3     4 ar  
     8     3    19 ar  
     9     3    44 1   
    10     4     5 ar  
    11     4    45 1   
    12     5     6 ar  
    13     5    18 1   
    14     6     7 ar  
    15     6    46 1   
    16     7    19 ar  
    17     7    47 1   
    18     8     9 1   
    19     8    21 1   
    20     8    22 1   
    21     8    23 1   
    22     9    48 1   
    23     9    49 1   
    24     9    50 1   
    25    10    12 1   
    26    10    29 1   
    27    10    51 1   
    28    11    29 1   
    29    11    30 1   
    30    11    52 1   
    31    11    53 1   
    32    12    13 ar  
    33    12    41 ar  
    34    13    14 ar  
    35    13    54 1   
    36    14    42 ar  
    37    14    55 1   
    38    15    41 ar  
    39    15    42 ar  
    40    15    56 1   
    41    16    32 2   
    42    16    40 1   
    43    16    57 1   
    44    17    37 2   
    45    17    40 1   
    46    17    82 1   
    47    18    58 1   
    48    18    59 1   
    49    18    60 1   
    50    20    21 2   
    51    21    24 1   
    52    22    61 1   
    53    22    62 1   
    54    22    63 1   
    55    23    64 1   
    56    23    65 1   
    57    23    66 1   
    58    24    25 2   
    59    24    67 1   
    60    25    26 1   
    61    26    27 1   
    62    26    68 1   
    63    27    28 2   
    64    29    69 1   
    65    29    70 1   
    66    30    31 1   
    67    30    41 1   
    68    30    71 1   
    69    31    32 1   
    70    32    33 1   
    71    33    34 2   
    72    33    72 1   
    73    34    35 1   
    74    34    73 1   
    75    35    36 2   
    76    35    40 1   
    77    36    37 1   
    78    38    75 1   
    79    38    76 1   
    80    38    77 1   
    81    38    82 1   
    82    39    78 1   
    83    39    79 1   
    84    39    80 1   
    85    39    82 1   
    86    42    81 1   
    87    74    82 1   
@<TRIPOS>SUBSTRUCTURE
     1 HYW         1 TEMP              0 ****  ****    0 ROOT
