@<TRIPOS>MOLECULE
HYW
   82    87     1     0     0
SMALL
abcg2


@<TRIPOS>ATOM
      1 N1           5.4130    -0.2190    -0.0730 na         1 HYW       0.180000
      2 N3           0.9680    -0.8360     1.0210 ns         1 HYW      -0.521900
      3 C4           4.1310     1.3520    -1.4140 ca         1 HYW      -0.107000
      4 C5           3.9410     2.6390    -1.8960 ca         1 HYW      -0.104000
      5 C6           4.8200     3.6700    -1.5750 ca         1 HYW      -0.072300
      6 C7           5.9040     3.3720    -0.7490 ca         1 HYW      -0.104000
      7 C8           6.0970     2.0970    -0.2440 ca         1 HYW      -0.107000
      8 C10          7.6660    -2.9380     0.4740 c3         1 HYW      -0.072300
      9 C13          7.9270    -3.2880     1.9440 c3         1 HYW      -0.080100
     10 C15         -0.3130    -1.5200     1.0210 c6         1 HYW       0.170000
     11 C17         -1.7460     0.2070     2.1490 c6         1 HYW      -0.082400
     12 C20         -1.0640    -1.1890    -0.2560 ca         1 HYW      -0.104300
     13 C21         -0.5780    -1.7020    -1.4580 ca         1 HYW      -0.095000
     14 C22         -1.1810    -1.3960    -2.6640 ca         1 HYW      -0.104000
     15 C24         -2.7780    -0.0400    -1.4920 ca         1 HYW      -0.102000
     16 C26         -5.5260     0.8160     0.4720 cc         1 HYW      -0.212000
     17 C28         -7.9880     0.5250     0.1810 cc         1 HYW       0.321800
     18 C9           4.6030     5.0650    -2.0820 c3         1 HYW      -0.048800
     19 C3           5.2050     1.0830    -0.5750 ca         1 HYW       0.007800
     20 N            6.6330    -0.7810    -0.1460 nc         1 HYW      -0.509800
     21 C2           6.5120    -1.9740     0.3940 cd         1 HYW       0.278300
     22 C12          8.9330    -2.3320    -0.1280 c3         1 HYW      -0.080100
     23 C11          7.3000    -4.2150    -0.2910 c3         1 HYW      -0.080100
     24 C1           5.1940    -2.1940     0.8530 cd         1 HYW      -0.222000
     25 C            4.5200    -1.0380     0.5410 cc         1 HYW       0.022600
     26 N2           3.2260    -0.6200     0.7740 ns         1 HYW      -0.424100
     27 C14          2.1460    -1.4730     0.8320 c          1 HYW       0.668100
     28 O1           2.2660    -2.6830     0.7280 o          1 HYW      -0.614100
     29 C16         -1.1190    -1.1730     2.2670 c6         1 HYW      -0.086400
     30 C18         -2.7620     0.1830     1.0240 c6         1 HYW       0.221600
     31 O           -3.2600     1.5080     0.8460 os         1 HYW      -0.340100
     32 C25         -4.5810     1.7430     0.7770 cd         1 HYW       0.118100
     33 C33         -4.9650     3.1000     1.0300 cd         1 HYW      -0.111000
     34 C32         -6.2640     3.4790     0.9780 cc         1 HYW      -0.045000
     35 C27         -7.2450     2.5050     0.6790 cc         1 HYW      -0.128000
     36 N5          -8.5530     2.5840     0.5660 nd         1 HYW      -0.087000
     37 N6          -8.9970     1.3530     0.2570 nd         1 HYW      -0.358700
     38 C31         -7.7420    -1.7580     1.1480 c3         1 HYW      -0.086100
     39 C30         -9.3840    -1.3290    -0.7070 c3         1 HYW      -0.086100
     40 N4          -6.8410     1.2160     0.4440 na         1 HYW       0.038200
     41 C19         -2.1820    -0.3520    -0.2690 ca         1 HYW      -0.094300
     42 C23         -2.2860    -0.5540    -2.6790 ca         1 HYW      -0.103000
     43 H1           0.9450     0.1710     0.9820 hn         1 HYW       0.311500
     44 H2           3.4520     0.5630    -1.7090 ha         1 HYW       0.132000
     45 H3           3.1000     2.8360    -2.5490 ha         1 HYW       0.117500
     46 H4           6.6090     4.1530    -0.4890 ha         1 HYW       0.117500
     47 H5           6.9380     1.8860     0.4030 ha         1 HYW       0.132000
     48 H6           8.7430    -4.0090     2.0230 hc         1 HYW       0.036700
     49 H7           8.2070    -2.4020     2.5170 hc         1 HYW       0.036700
     50 H8           7.0490    -3.7300     2.4170 hc         1 HYW       0.036700
     51 H9          -0.0950    -2.5870     1.0300 h1         1 HYW       0.097700
     52 H10         -2.2440     0.4830     3.0800 hc         1 HYW       0.058700
     53 H11         -0.9860     0.9710     1.9560 hc         1 HYW       0.058700
     54 H12          0.2880    -2.3530    -1.4400 ha         1 HYW       0.130000
     55 H13         -0.7930    -1.8080    -3.5870 ha         1 HYW       0.121000
     56 H14         -3.6370     0.6180    -1.5350 ha         1 HYW       0.119000
     57 H15         -5.3270    -0.2170     0.2320 h4         1 HYW       0.156000
     58 H16          4.2030     5.7070    -1.2950 hc         1 HYW       0.045367
     59 H17          5.5360     5.5160    -2.4200 hc         1 HYW       0.045367
     60 H18          3.8990     5.0850    -2.9130 hc         1 HYW       0.045367
     61 H19          8.7970    -2.0630    -1.1760 hc         1 HYW       0.036700
     62 H20          9.2430    -1.4340     0.4080 hc         1 HYW       0.036700
     63 H21          9.7490    -3.0540    -0.0710 hc         1 HYW       0.036700
     64 H22          7.1050    -4.0060    -1.3450 hc         1 HYW       0.036700
     65 H23          8.1170    -4.9360    -0.2370 hc         1 HYW       0.036700
     66 H24          6.4090    -4.6920     0.1230 hc         1 HYW       0.036700
     67 H25          4.8000    -3.0620     1.3500 ha         1 HYW       0.164000
     68 H26          3.0750     0.3730     0.8830 hn         1 HYW       0.325500
     69 H27         -1.9070    -1.9210     2.3970 hc         1 HYW       0.061700
     70 H28         -0.4750    -1.2380     3.1450 hc         1 HYW       0.061700
     71 H29         -3.5800    -0.4750     1.3420 h1         1 HYW       0.053700
     72 H30         -4.1890     3.8190     1.2630 ha         1 HYW       0.139000
     73 H31         -6.5680     4.4990     1.1650 ha         1 HYW       0.151000
     74 H32         -7.2610    -1.1560    -0.8540 hc         1 HYW       0.051700
     75 H33         -7.7210    -2.8200     0.9040 hc         1 HYW       0.043200
     76 H34         -6.7800    -1.5080     1.5990 hc         1 HYW       0.043200
     77 H35         -8.5160    -1.5990     1.9000 hc         1 HYW       0.043200
     78 H36         -9.6100    -0.7660    -1.6120 hc         1 HYW       0.043200
     79 H37         -9.3760    -2.3880    -0.9630 hc         1 HYW       0.043200
     80 H38        -10.1920    -1.1610     0.0060 hc         1 HYW       0.043200
     81 H39         -2.7660    -0.3000    -3.6160 ha         1 HYW       0.119000
     82 C29         -8.0370    -0.9370    -0.1120 c3         1 HYW      -0.061000
@<TRIPOS>BOND
     1     1    19 1   
     2     1    20 1   
     3     1    25 1   
     4     2    10 1   
     5     2    27 1   
     6     2    43 1   
     7     3     4 ar  
     8     3    19 ar  
     9     3    44 1   
    10     4     5 ar  
    11     4    45 1   
    12     5     6 ar  
    13     5    18 1   
    14     6     7 ar  
    15     6    46 1   
    16     7    19 ar  
    17     7    47 1   
    18     8     9 1   
    19     8    21 1   
    20     8    22 1   
    21     8    23 1   
    22     9    48 1   
    23     9    49 1   
    24     9    50 1   
    25    10    12 1   
    26    10    29 1   
    27    10    51 1   
    28    11    29 1   
    29    11    30 1   
    30    11    52 1   
    31    11    53 1   
    32    12    13 ar  
    33    12    41 ar  
    34    13    14 ar  
    35    13    54 1   
    36    14    42 ar  
    37    14    55 1   
    38    15    41 ar  
    39    15    42 ar  
    40    15    56 1   
    41    16    32 2   
    42    16    40 1   
    43    16    57 1   
    44    17    37 2   
    45    17    40 1   
    46    17    82 1   
    47    18    58 1   
    48    18    59 1   
    49    18    60 1   
    50    20    21 2   
    51    21    24 1   
    52    22    61 1   
    53    22    62 1   
    54    22    63 1   
    55    23    64 1   
    56    23    65 1   
    57    23    66 1   
    58    24    25 2   
    59    24    67 1   
    60    25    26 1   
    61    26    27 1   
    62    26    68 1   
    63    27    28 2   
    64    29    69 1   
    65    29    70 1   
    66    30    31 1   
    67    30    41 1   
    68    30    71 1   
    69    31    32 1   
    70    32    33 1   
    71    33    34 2   
    72    33    72 1   
    73    34    35 1   
    74    34    73 1   
    75    35    36 2   
    76    35    40 1   
    77    36    37 1   
    78    38    75 1   
    79    38    76 1   
    80    38    77 1   
    81    38    82 1   
    82    39    78 1   
    83    39    79 1   
    84    39    80 1   
    85    39    82 1   
    86    42    81 1   
    87    74    82 1   
@<TRIPOS>SUBSTRUCTURE
     1 HYW         1 TEMP              0 ****  ****    0 ROOT
