@<TRIPOS>MOLECULE
HYY
   58    59     1     0     0
SMALL
bcc


@<TRIPOS>ATOM
      1 C01          6.1220    -0.5010    -0.7120 ca         1 HYY      -0.119000
      2 C02          7.0660     0.4110    -1.1510 ca         1 HYY      -0.113000
      3 C03          7.2170     1.6240    -0.4950 ca         1 HYY       0.024400
      4 C04          6.4150     1.9150     0.6020 ca         1 HYY       0.027400
      5 C05          5.4670     0.9980     1.0320 ca         1 HYY      -0.112000
      6 C06          5.3090    -0.2210     0.3840 ca         1 HYY      -0.070300
      7 C07          4.2550    -1.1920     0.8280 c3         1 HYY      -0.036100
      8 C08          3.0080    -1.0670    -0.0490 c3         1 HYY       0.176800
      9 N09          1.8910    -1.8650     0.4270 n3         1 HYY      -0.727600
     10 C10          2.1820    -3.2890     0.5270 c3         1 HYY       0.159800
     11 C11          2.5820    -4.0080    -0.7640 c3         1 HYY      -0.109400
     12 C12          2.8450    -5.4860    -0.5090 c3         1 HYY      -0.088100
     13 C13          0.6730    -1.5360    -0.2920 c3         1 HYY       0.146800
     14 C14         -0.6190    -1.8640     0.4570 c3         1 HYY       0.141100
     15 C15         -1.7590    -1.0510    -0.1420 c3         1 HYY       0.105400
     16 O16         -2.9270    -1.3250     0.6060 os         1 HYY      -0.300900
     17 C17         -4.0950    -0.7840     0.2190 ca         1 HYY       0.154100
     18 C18         -4.2530     0.0360    -0.8950 ca         1 HYY      -0.183500
     19 C19         -5.5100     0.5450    -1.2020 ca         1 HYY      -0.083500
     20 C20         -6.6150     0.2340    -0.4250 ca         1 HYY       0.048600
     21 C21         -6.4540    -0.5940     0.6830 ca         1 HYY      -0.083500
     22 C22         -5.2070    -1.0910     1.0070 ca         1 HYY      -0.183500
     23 N23         -7.9090     0.7200    -0.7580 nu         1 HYY      -0.676500
     24 S24         -8.5140     2.0310     0.0630 s6         1 HYY       1.216900
     25 C25         -7.4860     3.4160    -0.3670 c3         1 HYY      -0.273300
     26 O26         -9.8470     2.2560    -0.4720 o          1 HYY      -0.596800
     27 O27         -8.3430     1.7660     1.4820 o          1 HYY      -0.596800
     28 O28         -0.9450    -3.2370     0.4780 oh         1 HYY      -0.572800
     29 CL1          6.5880     3.4090     1.4430 cl         1 HYY      -0.079400
     30 CL2          8.3990     2.7510    -1.0480 cl         1 HYY      -0.080400
     31 H1           6.0240    -1.4460    -1.2310 ha         1 HYY       0.138000
     32 H2           7.6920     0.1820    -2.0030 ha         1 HYY       0.150000
     33 H3           4.8500     1.2380     1.8890 ha         1 HYY       0.151000
     34 H4           4.6600    -2.2050     0.7790 hc         1 HYY       0.061200
     35 H5           3.9810    -1.0040     1.8680 hc         1 HYY       0.061200
     36 H6           2.6940    -0.0190    -0.0390 h1         1 HYY       0.032700
     37 H7           3.2830    -1.2890    -1.0930 h1         1 HYY       0.032700
     38 H9           2.9800    -3.4250     1.2630 h1         1 HYY       0.062700
     39 H10          1.3120    -3.7870     0.9540 h1         1 HYY       0.062700
     40 H11          1.7950    -3.9050    -1.5160 hc         1 HYY       0.035200
     41 H12          3.4780    -3.5500    -1.1930 hc         1 HYY       0.035200
     42 H13          3.1470    -6.0010    -1.4220 hc         1 HYY       0.035033
     43 H14          3.6400    -5.6260     0.2260 hc         1 HYY       0.035033
     44 H15          1.9530    -5.9870    -0.1290 hc         1 HYY       0.035033
     45 H16          0.6820    -0.4550    -0.4520 h1         1 HYY       0.032700
     46 H17          0.6270    -1.9800    -1.3010 h1         1 HYY       0.032700
     47 H18         -0.4890    -1.5690     1.5020 h1         1 HYY       0.103700
     48 H19         -1.5200     0.0180    -0.1020 h1         1 HYY       0.036700
     49 H20         -1.9010    -1.3210    -1.1970 h1         1 HYY       0.036700
     50 H21         -3.4200     0.2990    -1.5320 ha         1 HYY       0.147500
     51 H22         -5.6200     1.1890    -2.0670 ha         1 HYY       0.145000
     52 H23         -7.3100    -0.8610     1.2880 ha         1 HYY       0.145000
     53 H24         -5.0870    -1.7350     1.8690 ha         1 HYY       0.147500
     54 H25         -8.1030     0.7780    -1.7530 hn         1 HYY       0.430800
     55 H26         -7.5450     3.5860    -1.4400 h1         1 HYY       0.101700
     56 H27         -7.8580     4.2870     0.1700 h1         1 HYY       0.101700
     57 H28         -6.4600     3.2130    -0.0710 h1         1 HYY       0.101700
     58 H29         -0.9480    -3.5650    -0.4280 ho         1 HYY       0.396000
@<TRIPOS>BOND
     1     1     2 ar  
     2     1     6 ar  
     3     1    31 1   
     4     2     3 ar  
     5     2    32 1   
     6     3     4 ar  
     7     3    30 1   
     8     4     5 ar  
     9     4    29 1   
    10     5     6 ar  
    11     5    33 1   
    12     6     7 1   
    13     7     8 1   
    14     7    34 1   
    15     7    35 1   
    16     8     9 1   
    17     8    36 1   
    18     8    37 1   
    19     9    10 1   
    20     9    13 1   
    21    10    11 1   
    22    10    38 1   
    23    10    39 1   
    24    11    12 1   
    25    11    40 1   
    26    11    41 1   
    27    12    42 1   
    28    12    43 1   
    29    12    44 1   
    30    13    14 1   
    31    13    45 1   
    32    13    46 1   
    33    14    15 1   
    34    14    28 1   
    35    14    47 1   
    36    15    16 1   
    37    15    48 1   
    38    15    49 1   
    39    16    17 1   
    40    17    18 ar  
    41    17    22 ar  
    42    18    19 ar  
    43    18    50 1   
    44    19    20 ar  
    45    19    51 1   
    46    20    21 ar  
    47    20    23 1   
    48    21    22 ar  
    49    21    52 1   
    50    22    53 1   
    51    23    24 1   
    52    23    54 1   
    53    24    25 1   
    54    24    26 2   
    55    24    27 2   
    56    25    55 1   
    57    25    56 1   
    58    25    57 1   
    59    28    58 1   
@<TRIPOS>SUBSTRUCTURE
     1 HYY         1 TEMP              0 ****  ****    0 ROOT
