@<TRIPOS>MOLECULE
HYY
   58    59     1     0     0
SMALL
No Charge or Current Charge


@<TRIPOS>ATOM
      1 C01          6.5580    -0.9230    -0.7930 ca         1 HYY      -0.101000
      2 C02          7.6370    -0.2200    -1.3580 ca         1 HYY      -0.095000
      3 C03          7.8980     1.1050    -0.9690 ca         1 HYY       0.116000
      4 C04          7.0730     1.7280    -0.0090 ca         1 HYY       0.119000
      5 C05          5.9960     1.0230     0.5540 ca         1 HYY      -0.094000
      6 C06          5.7330    -0.3060     0.1670 ca         1 HYY      -0.070300
      7 C07          4.5620    -1.0680     0.7730 c3         1 HYY      -0.036100
      8 C08          3.3110    -1.0160    -0.1350 c3         1 HYY       0.176800
      9 N09          2.0680    -1.5890     0.4550 n3         1 HYY      -0.727600
     10 C10          2.1840    -3.0150     0.8870 c3         1 HYY       0.159800
     11 C11          2.4640    -4.0350    -0.2450 c3         1 HYY      -0.109400
     12 C12          2.5480    -5.4860     0.2680 c3         1 HYY      -0.088100
     13 C13          0.8670    -1.2830    -0.3850 c3         1 HYY       0.146800
     14 C14         -0.5300    -1.5660     0.2520 c3         1 HYY       0.164300
     15 C15         -1.6340    -0.6870    -0.3880 c3         1 HYY       0.128600
     16 O16         -2.9010    -1.0540     0.1940 os         1 HYY      -0.324100
     17 C17         -4.0820    -0.4420    -0.1690 ca         1 HYY       0.154100
     18 C18         -4.1440     0.5800    -1.1390 ca         1 HYY      -0.165500
     19 C19         -5.3820     1.1650    -1.4650 ca         1 HYY      -0.065500
     20 C20         -6.5690     0.7470    -0.8330 ca         1 HYY       0.187000
     21 C21         -6.4980    -0.2810     0.1310 ca         1 HYY      -0.065500
     22 C22         -5.2620    -0.8670     0.4590 ca         1 HYY      -0.165500
     23 N23         -7.7720     1.3650    -1.1980 nu         1 HYY      -0.870100
     24 S24         -9.2260     1.4510    -0.3940 s6         1 HYY       1.186100
     25 C25         -8.8310     2.1500     1.1960 c3         1 HYY      -0.384100
     26 O26        -10.0190     2.4190    -1.1520 o          1 HYY      -0.526000
     27 O27         -9.6950     0.0740    -0.2220 o          1 HYY      -0.526000
     28 O28         -0.9020    -2.9550     0.1140 oh         1 HYY      -0.635000
     29 Cl1          7.3690     3.3910     0.5020 cl         1 HYY      -0.171000
     30 Cl2          9.2580     1.9600    -1.6970 cl         1 HYY      -0.172000
     31 H1           6.3640    -1.9480    -1.1020 ha         1 HYY       0.120000
     32 H2           8.2710    -0.7020    -2.0980 ha         1 HYY       0.132000
     33 H3           5.3640     1.5130     1.2910 ha         1 HYY       0.133000
     34 H4           4.8550    -2.1110     0.9400 hc         1 HYY       0.061200
     35 H5           4.3050    -0.6550     1.7560 hc         1 HYY       0.061200
     36 H6           3.1340     0.0420    -0.3730 h1         1 HYY       0.032700
     37 H7           3.5460    -1.5130    -1.0860 h1         1 HYY       0.032700
     38 H9           2.9800    -3.1130     1.6370 h1         1 HYY       0.062700
     39 H10          1.2680    -3.3230     1.4070 h1         1 HYY       0.062700
     40 H11          1.6740    -3.9780    -1.0030 hc         1 HYY       0.035200
     41 H12          3.4080    -3.7880    -0.7440 hc         1 HYY       0.035200
     42 H13          2.7480    -6.1740    -0.5620 hc         1 HYY       0.035033
     43 H14          3.3550    -5.5910     1.0040 hc         1 HYY       0.035033
     44 H15          1.6050    -5.7840     0.7420 hc         1 HYY       0.035033
     45 H16          0.8910    -0.2110    -0.6260 h1         1 HYY       0.032700
     46 H17          0.9300    -1.8080    -1.3480 h1         1 HYY       0.032700
     47 H18         -0.4730    -1.2870     1.3140 h1         1 HYY       0.103700
     48 H19         -1.4120     0.3710    -0.1960 h1         1 HYY       0.036700
     49 H20         -1.6460    -0.8490    -1.4740 h1         1 HYY       0.036700
     50 H21         -3.2510     0.9320    -1.6470 ha         1 HYY       0.129500
     51 H22         -5.4170     1.9510    -2.2160 ha         1 HYY       0.127000
     52 H23         -7.3920    -0.6410     0.6300 ha         1 HYY       0.127000
     53 H24         -5.2190    -1.6580     1.2040 ha         1 HYY       0.129500
     54 H25         -7.7420     2.1690    -1.8120 hn         1 HYY       0.486000
     55 H26         -8.3650     3.1250     1.0220 h1         1 HYY       0.101700
     56 H27         -9.7690     2.2520     1.7510 h1         1 HYY       0.101700
     57 H28         -8.1440     1.4660     1.7040 h1         1 HYY       0.101700
     58 H29         -1.8700    -2.9910     0.2810 ho         1 HYY       0.435000
@<TRIPOS>BOND
     1     1     2 ar  
     2     1     6 ar  
     3     1    31 1   
     4     2     3 ar  
     5     2    32 1   
     6     3     4 ar  
     7     3    30 1   
     8     4     5 ar  
     9     4    29 1   
    10     5     6 ar  
    11     5    33 1   
    12     6     7 1   
    13     7     8 1   
    14     7    34 1   
    15     7    35 1   
    16     8     9 1   
    17     8    36 1   
    18     8    37 1   
    19     9    10 1   
    20     9    13 1   
    21    10    11 1   
    22    10    38 1   
    23    10    39 1   
    24    11    12 1   
    25    11    40 1   
    26    11    41 1   
    27    12    42 1   
    28    12    43 1   
    29    12    44 1   
    30    13    14 1   
    31    13    45 1   
    32    13    46 1   
    33    14    15 1   
    34    14    28 1   
    35    14    47 1   
    36    15    16 1   
    37    15    48 1   
    38    15    49 1   
    39    16    17 1   
    40    17    18 ar  
    41    17    22 ar  
    42    18    19 ar  
    43    18    50 1   
    44    19    20 ar  
    45    19    51 1   
    46    20    21 ar  
    47    20    23 1   
    48    21    22 ar  
    49    21    52 1   
    50    22    53 1   
    51    23    24 1   
    52    23    54 1   
    53    24    25 1   
    54    24    26 2   
    55    24    27 2   
    56    25    55 1   
    57    25    56 1   
    58    25    57 1   
    59    28    58 1   
@<TRIPOS>SUBSTRUCTURE
     1 HYY         1 TEMP              0 ****  ****    0 ROOT
