@<TRIPOS>MOLECULE
HYZ
   60    64     1     0     0
SMALL
abcg2


@<TRIPOS>ATOM
      1 C1          -5.9270    -2.3030     1.9020 ca         1 HYZ      -0.142000
      2 C2          -6.3270    -1.0420     1.4780 ca         1 HYZ      -0.086000
      3 C3          -5.9070    -0.5400     0.2560 ca         1 HYZ      -0.100000
      4 C8          -3.2450     2.4550    -1.4540 cc         1 HYZ       0.354800
      5 C9          -2.0590     1.7300    -1.1620 ca         1 HYZ      -0.203900
      6 C10         -2.4340     0.3910    -1.3370 ca         1 HYZ      -0.061200
      7 C11         -1.5200    -0.6490    -1.1360 ca         1 HYZ      -0.101000
      8 C12         -0.2480    -0.2960    -0.7630 ca         1 HYZ      -0.120000
      9 C13          0.1570     1.0550    -0.5840 ca         1 HYZ       0.276000
     10 C14         -0.7540     2.0760    -0.7860 ca         1 HYZ      -0.063000
     11 C15          4.1420     3.3500     1.0200 ca         1 HYZ       0.395900
     12 C16          3.5440     2.2440     0.4070 ca         1 HYZ      -0.348300
     13 C19          4.3200     1.0840    -0.1540 c3         1 HYZ       0.237100
     14 C20          4.2390    -3.5960    -0.9410 c6         1 HYZ      -0.074400
     15 C21          3.6010    -2.4300    -0.2020 c6         1 HYZ       0.151800
     16 C22          5.7600    -1.5980     0.4780 c6         1 HYZ       0.151800
     17 C24          5.5820    -3.9660    -0.3240 c6         1 HYZ      -0.077400
     18 C4          -5.0740    -1.2970    -0.5650 ca         1 HYZ      -0.092300
     19 C5          -4.6680    -2.5590    -0.1500 ca         1 HYZ      -0.140000
     20 C6          -5.1030    -3.0360     1.0730 ca         1 HYZ       0.167000
     21 F1          -4.7060    -4.2580     1.4640 f          1 HYZ      -0.180000
     22 N1          -3.7370     0.3980    -1.7180 na         1 HYZ       0.072600
     23 N2          -4.2230     1.6420    -1.7720 nd         1 HYZ      -0.525100
     24 N4           3.4230     4.4230     1.3980 nb         1 HYZ      -0.290000
     25 C17          2.1450     2.3110     0.2660 ca         1 HYZ       0.420900
     26 N5           1.4410     3.3890     0.6250 nb         1 HYZ      -0.282000
     27 C18          2.1310     4.3790     1.1590 ca         1 HYZ       0.196900
     28 N7           3.8460    -0.1810     0.3940 n7         1 HYZ      -0.664200
     29 N8           4.4970    -1.2860    -0.1780 n3         1 HYZ      -0.487400
     30 C23          6.4740    -2.7340    -0.2400 c6         1 HYZ      -0.074400
     31 H1          -6.2510    -2.7040     2.8530 ha         1 HYZ       0.132000
     32 H2          -6.9780    -0.4520     2.1090 ha         1 HYZ       0.120000
     33 H3          -6.2290     0.4440    -0.0620 ha         1 HYZ       0.133000
     34 HN6          6.0450     2.6210     1.2640 hn         1 HYZ       0.479000
     35 HN6A         5.7760     4.1920     1.8370 hn         1 HYZ       0.479000
     36 H7          -4.0720    -1.5070    -2.4560 h1         1 HYZ       0.072200
     37 H7A         -5.4480    -0.4180    -2.4930 h1         1 HYZ       0.072200
     38 H8          -3.4010     3.5230    -1.4450 h4         1 HYZ       0.050800
     39 H11         -1.7860    -1.6900    -1.2630 ha         1 HYZ       0.119000
     40 H12          0.4790    -1.0840    -0.6030 ha         1 HYZ       0.110000
     41 H14         -0.4750     3.1080    -0.6530 ha         1 HYZ       0.152000
     42 H19          4.1690     1.0380    -1.2360 h1         1 HYZ       0.047700
     43 H19A         5.3970     1.2260    -0.0110 h1         1 HYZ       0.047700
     44 H20          3.5550    -4.4460    -0.9260 hc         1 HYZ       0.049950
     45 H20A         4.3800    -3.3180    -1.9900 hc         1 HYZ       0.049950
     46 H21          2.6790    -2.1290    -0.7040 h1         1 HYZ       0.034450
     47 H21A         3.3240    -2.7470     0.8180 h1         1 HYZ       0.034450
     48 H22          6.3910    -0.7070     0.4730 h1         1 HYZ       0.034450
     49 H22A         5.5970    -1.8750     1.5340 h1         1 HYZ       0.034450
     50 H24          5.4220    -4.3680     0.6830 hc         1 HYZ       0.041700
     51 H24A         6.0670    -4.7540    -0.9040 hc         1 HYZ       0.041700
     52 H5          -4.0210    -3.1690    -0.7700 ha         1 HYZ       0.127000
     53 HN3          2.0660     0.3830    -0.2080 hn         1 HYZ       0.534000
     54 H18          1.5610     5.2580     1.4440 h5         1 HYZ       0.043100
     55 HN7          3.9390    -0.1820     1.4100 hn         1 HYZ       0.398000
     56 H23          6.7470    -2.4050    -1.2470 hc         1 HYZ       0.049950
     57 H23A         7.4050    -2.9620     0.2840 hc         1 HYZ       0.049950
     58 C7          -4.6040    -0.7430    -1.8860 c3         1 HYZ       0.141900
     59 N3           1.4980     1.2300    -0.2480 nu         1 HYZ      -0.938900
     60 N6           5.4770     3.4490     1.2270 nv         1 HYZ      -1.057900
@<TRIPOS>BOND
     1     1     2 ar  
     2     1    20 ar  
     3     1    31 1   
     4     2     3 ar  
     5     2    32 1   
     6     3    18 ar  
     7     3    33 1   
     8     4     5 1   
     9     4    23 2   
    10     4    38 1   
    11     5     6 ar  
    12     5    10 ar  
    13     6     7 ar  
    14     6    22 1   
    15     7     8 ar  
    16     7    39 1   
    17     8     9 ar  
    18     8    40 1   
    19     9    10 ar  
    20     9    59 1   
    21    10    41 1   
    22    11    12 ar  
    23    11    24 ar  
    24    11    60 1   
    25    12    13 1   
    26    12    25 ar  
    27    13    28 1   
    28    13    42 1   
    29    13    43 1   
    30    14    15 1   
    31    14    17 1   
    32    14    44 1   
    33    14    45 1   
    34    15    29 1   
    35    15    46 1   
    36    15    47 1   
    37    16    29 1   
    38    16    30 1   
    39    16    48 1   
    40    16    49 1   
    41    17    30 1   
    42    17    50 1   
    43    17    51 1   
    44    18    19 ar  
    45    18    58 1   
    46    19    20 ar  
    47    19    52 1   
    48    20    21 1   
    49    22    23 1   
    50    22    58 1   
    51    24    27 ar  
    52    25    26 ar  
    53    25    59 1   
    54    26    27 ar  
    55    27    54 1   
    56    28    29 1   
    57    28    55 1   
    58    30    56 1   
    59    30    57 1   
    60    34    60 1   
    61    35    60 1   
    62    36    58 1   
    63    37    58 1   
    64    53    59 1   
@<TRIPOS>SUBSTRUCTURE
     1 HYZ         1 TEMP              0 ****  ****    0 ROOT
