@<TRIPOS>MOLECULE
HYZ
   60    64     1     0     0
SMALL
No Charge or Current Charge


@<TRIPOS>ATOM
      1 C1          -5.4360    -2.6120     1.9530 ca         1 HYZ      -0.142000
      2 C2          -5.4710    -1.2130     1.8180 ca         1 HYZ      -0.086000
      3 C3          -5.1960    -0.6200     0.5730 ca         1 HYZ      -0.100000
      4 C8          -3.1080     2.4670    -1.9880 cc         1 HYZ       0.354800
      5 C9          -1.9950     1.7120    -1.4650 ca         1 HYZ      -0.203900
      6 C10         -2.4230     0.4260    -1.3850 ca         1 HYZ      -0.061200
      7 C11         -1.5960    -0.6050    -0.9210 ca         1 HYZ      -0.101000
      8 C12         -0.2830    -0.2590    -0.5300 ca         1 HYZ      -0.120000
      9 C13          0.1720     1.0830    -0.6000 ca         1 HYZ       0.276000
     10 C14         -0.6990     2.0910    -1.0860 ca         1 HYZ      -0.063000
     11 C15          4.1310     3.5520     1.0370 ca         1 HYZ       0.395900
     12 C16          3.5440     2.4140     0.4630 ca         1 HYZ      -0.348300
     13 C19          4.3560     1.2200    -0.0360 c3         1 HYZ       0.237100
     14 C20          3.9050    -3.4600    -1.0450 c6         1 HYZ      -0.074400
     15 C21          3.3500    -2.2730    -0.2190 c6         1 HYZ       0.151800
     16 C22          5.6330    -1.7490     0.6310 c6         1 HYZ       0.151800
     17 C24          5.1840    -4.0420    -0.3970 c6         1 HYZ      -0.077400
     18 C4          -4.8790    -1.4200    -0.5460 ca         1 HYZ      -0.092300
     19 C5          -4.8510    -2.8220    -0.4020 ca         1 HYZ      -0.140000
     20 C6          -5.1270    -3.4100     0.8420 ca         1 HYZ       0.167000
     21 F1          -5.0950    -4.7550     0.9710 f          1 HYZ      -0.180000
     22 N1          -3.7280     0.4230    -1.8350 na         1 HYZ       0.072600
     23 N2          -4.1780     1.6870    -2.2200 nd         1 HYZ      -0.525100
     24 N4           3.4180     4.6160     1.4250 nb         1 HYZ      -0.290000
     25 C17          2.1490     2.4620     0.3010 ca         1 HYZ       0.420900
     26 N5           1.4140     3.5150     0.6930 nb         1 HYZ      -0.282000
     27 C18          2.0880     4.5460     1.2340 ca         1 HYZ       0.196900
     28 N7           3.8850    -0.0270     0.6000 n7         1 HYZ      -0.664200
     29 N8           4.3880    -1.2250    -0.0020 n3         1 HYZ      -0.487400
     30 C23          6.2320    -2.9240    -0.1810 c6         1 HYZ      -0.074400
     31 H1          -5.6480    -3.0760     2.9130 ha         1 HYZ       0.132000
     32 H2          -5.7130    -0.5890     2.6760 ha         1 HYZ       0.120000
     33 H3          -5.2290     0.4640     0.4820 ha         1 HYZ       0.133000
     34 HN6          6.0400     2.8370     1.2450 hn         1 HYZ       0.479000
     35 HN6A         5.7900     4.4450     1.8270 hn         1 HYZ       0.479000
     36 H7          -4.0660    -1.5140    -2.5470 h1         1 HYZ       0.072200
     37 H7A         -5.5200    -0.5220    -2.3920 h1         1 HYZ       0.072200
     38 H8          -3.2030     3.5210    -2.2120 h4         1 HYZ       0.050800
     39 H11         -1.9460    -1.6330    -0.8610 ha         1 HYZ       0.119000
     40 H12          0.3800    -1.0350    -0.1600 ha         1 HYZ       0.110000
     41 H14         -0.3740     3.1220    -1.1790 ha         1 HYZ       0.152000
     42 H19          4.2350     1.1560    -1.1270 h1         1 HYZ       0.047700
     43 H19A         5.4280     1.3570     0.1550 h1         1 HYZ       0.047700
     44 H20          3.1390    -4.2420    -1.1330 hc         1 HYZ       0.049950
     45 H20A         4.1280    -3.1220    -2.0660 hc         1 HYZ       0.049950
     46 H21          2.4900    -1.8480    -0.7560 h1         1 HYZ       0.034450
     47 H21A         2.9810    -2.6450     0.7480 h1         1 HYZ       0.034450
     48 H22          6.3890    -0.9530     0.7050 h1         1 HYZ       0.034450
     49 H22A         5.4200    -2.0910     1.6550 h1         1 HYZ       0.034450
     50 H24          4.9340    -4.5090     0.5660 hc         1 HYZ       0.041700
     51 H24A         5.6030    -4.8350    -1.0330 hc         1 HYZ       0.041700
     52 H5          -4.6140    -3.4590    -1.2510 ha         1 HYZ       0.127000
     53 HN3          2.1040     0.5410    -0.1510 hn         1 HYZ       0.534000
     54 H18          1.5000     5.4060     1.5500 h5         1 HYZ       0.043100
     55 HN7          3.9740     0.0250     1.6260 hn         1 HYZ       0.398000
     56 H23          6.5850    -2.5540    -1.1530 hc         1 HYZ       0.049950
     57 H23A         7.1100    -3.3270     0.3400 hc         1 HYZ       0.049950
     58 C7          -4.5740    -0.7850    -1.9040 c3         1 HYZ       0.141900
     59 N3           1.4870     1.3610    -0.2120 nu         1 HYZ      -0.938900
     60 N6           5.4650     3.6740     1.2490 nv         1 HYZ      -1.057900
@<TRIPOS>BOND
     1     1     2 ar  
     2     1    20 ar  
     3     1    31 1   
     4     2     3 ar  
     5     2    32 1   
     6     3    18 ar  
     7     3    33 1   
     8     4     5 1   
     9     4    23 2   
    10     4    38 1   
    11     5     6 ar  
    12     5    10 ar  
    13     6     7 ar  
    14     6    22 1   
    15     7     8 ar  
    16     7    39 1   
    17     8     9 ar  
    18     8    40 1   
    19     9    10 ar  
    20     9    59 1   
    21    10    41 1   
    22    11    12 ar  
    23    11    24 ar  
    24    11    60 1   
    25    12    13 1   
    26    12    25 ar  
    27    13    28 1   
    28    13    42 1   
    29    13    43 1   
    30    14    15 1   
    31    14    17 1   
    32    14    44 1   
    33    14    45 1   
    34    15    29 1   
    35    15    46 1   
    36    15    47 1   
    37    16    29 1   
    38    16    30 1   
    39    16    48 1   
    40    16    49 1   
    41    17    30 1   
    42    17    50 1   
    43    17    51 1   
    44    18    19 ar  
    45    18    58 1   
    46    19    20 ar  
    47    19    52 1   
    48    20    21 1   
    49    22    23 1   
    50    22    58 1   
    51    24    27 ar  
    52    25    26 ar  
    53    25    59 1   
    54    26    27 ar  
    55    27    54 1   
    56    28    29 1   
    57    28    55 1   
    58    30    56 1   
    59    30    57 1   
    60    34    60 1   
    61    35    60 1   
    62    36    58 1   
    63    37    58 1   
    64    53    59 1   
@<TRIPOS>SUBSTRUCTURE
     1 HYZ         1 TEMP              0 ****  ****    0 ROOT
