@<TRIPOS>MOLECULE
HZ0
  102   105     1     0     0
SMALL
bcc


@<TRIPOS>ATOM
      1 C10         26.5430    26.8790    46.2070 ca         1 HZ0      -0.033300
      2 C15         24.5970    26.8970    44.2220 ca         1 HZ0      -0.027600
      3 C17         24.8630    25.7280    44.9220 ca         1 HZ0       0.083600
      4 C21         24.5950    23.5620    43.8370 c          1 HZ0       0.679100
      5 C24         26.7710    22.4910    43.2610 c3         1 HZ0       0.168100
      6 C28         26.9370    20.8690    46.6100 c3         1 HZ0       0.056700
      7 C01         33.0100    22.3130    48.8660 c3         1 HZ0       0.124700
      8 C03         31.7810    22.1030    46.8540 c3         1 HZ0       0.143300
      9 C04         30.6010    22.9190    47.2820 c2         1 HZ0      -0.202200
     10 C05         30.3890    24.1680    46.8540 ce         1 HZ0      -0.105000
     11 C06         29.2460    24.9710    47.2500 ce         1 HZ0      -0.147000
     12 C07         28.8680    26.1460    46.7210 c2         1 HZ0      -0.084400
     13 C08         29.5660    26.8460    45.5980 c3         1 HZ0      -0.061900
     14 C09         27.6360    26.8410    47.2460 c3         1 HZ0      -0.001900
     15 C11         26.2640    28.0490    45.5090 ca         1 HZ0      -0.209000
     16 C12         25.2910    28.0760    44.5130 ca         1 HZ0       0.159100
     17 O13         24.9680    29.1550    43.7930 os         1 HZ0      -0.296900
     18 C14         25.6550    30.3680    44.0430 c3         1 HZ0       0.122700
     19 CL1         23.4150    26.9000    42.9690 cl         1 HZ0      -0.066400
     20 C18         25.8300    25.7240    45.9170 ca         1 HZ0      -0.158000
     21 N19         24.1290    24.5520    44.6350 n          1 HZ0      -0.403000
     22 O22         23.9430    22.5470    43.6460 o          1 HZ0      -0.586100
     23 C23         25.9410    23.7590    43.1700 c3         1 HZ0      -0.160400
     24 O25         26.9380    22.1960    44.6600 os         1 HZ0      -0.436900
     25 O27         26.2640    20.0670    44.4410 o          1 HZ0      -0.503000
     26 C29         26.6830    22.1410    47.4130 c3         1 HZ0      -0.093100
     27 N30         26.3550    19.6530    47.1510 n          1 HZ0      -0.465800
     28 C31         27.2850    18.5650    47.4090 c3         1 HZ0       0.082300
     29 C32         25.0370    19.3250    47.0390 c          1 HZ0       0.679100
     30 O33         24.6630    18.1690    47.1540 o          1 HZ0      -0.563100
     31 C34         24.0060    20.4230    46.8760 c3         1 HZ0      -0.155400
     32 C35         23.5660    21.0220    48.2090 c3         1 HZ0       0.004700
     33 S36         22.9730    19.8340    49.4490 ss         1 HZ0      -0.183100
     34 S37         21.3290    18.9990    48.5570 ss         1 HZ0      -0.142100
     35 C38         20.0110    20.1540    49.0140 c3         1 HZ0      -0.033000
     36 C39         28.1580    22.6170    42.6500 cx         1 HZ0       0.058800
     37 C40         28.9290    23.8640    42.9910 c3         1 HZ0      -0.079100
     38 O41         28.2060    22.1980    41.2960 op         1 HZ0      -0.372600
     39 C42         28.7990    21.3520    42.2690 cx         1 HZ0       0.071100
     40 C43         30.2860    21.1090    42.1520 c3         1 HZ0      -0.049700
     41 C44         30.5290    20.1580    40.9800 c3         1 HZ0      -0.082100
     42 C45         30.8090    20.5520    43.4770 c6         1 HZ0       0.174100
     43 C46         30.7920    21.5700    44.5980 c6         1 HZ0      -0.120400
     44 C47         31.4060    20.9860    45.8550 c6         1 HZ0       0.350200
     45 O48         30.4680    20.1010    46.4080 oh         1 HZ0      -0.605800
     46 N49         32.6260    20.3020    45.4860 ns         1 HZ0      -0.640900
     47 C50         33.0010    19.9050    44.2510 c          1 HZ0       0.864600
     48 O51         34.0700    19.3860    44.0140 o          1 HZ0      -0.620500
     49 O52         32.1540    20.1190    43.2430 os         1 HZ0      -0.416900
     50 H1          22.5620    25.3190    45.7670 h1         1 HZ0       0.047033
     51 H2          22.0480    24.2300    44.4760 h1         1 HZ0       0.047033
     52 H3          22.7920    23.5770    45.9450 h1         1 HZ0       0.047033
     53 H4          26.2400    21.6720    42.7740 h1         1 HZ0       0.108700
     54 H5          28.0200    20.7130    46.6510 h1         1 HZ0       0.091700
     55 H6          33.5060    21.6940    49.6120 h1         1 HZ0       0.037700
     56 H7          33.7600    22.9470    48.3830 h1         1 HZ0       0.037700
     57 H8          32.2910    22.9620    49.3740 h1         1 HZ0       0.037700
     58 H9          32.5070    22.7580    46.3460 h1         1 HZ0       0.054700
     59 H10         29.8990    22.4520    47.9680 ha         1 HZ0       0.138000
     60 H12         31.1070    24.6050    46.1670 ha         1 HZ0       0.121000
     61 H14         28.6420    24.5610    48.0540 ha         1 HZ0       0.123000
     62 H083        30.4900    26.3620    45.2930 hc         1 HZ0       0.046033
     63 H081        28.9200    26.9040    44.7190 hc         1 HZ0       0.046033
     64 H082        29.7990    27.8760    45.8790 hc         1 HZ0       0.046033
     65 H091        27.8920    27.8630    47.5380 hc         1 HZ0       0.060200
     66 H17         27.2750    26.3290    48.1400 hc         1 HZ0       0.060200
     67 H18         26.8230    28.9430    45.7510 ha         1 HZ0       0.141000
     68 H142        25.2410    31.0990    43.3530 h1         1 HZ0       0.046700
     69 H141        25.5000    30.7190    45.0660 h1         1 HZ0       0.046700
     70 H19         26.7270    30.2730    43.8580 h1         1 HZ0       0.046700
     71 H20         26.0320    24.8040    46.4500 ha         1 HZ0       0.150000
     72 H21         26.4860    24.6070    43.5760 hc         1 HZ0       0.083200
     73 H22         25.7600    23.9780    42.1130 hc         1 HZ0       0.083200
     74 H23         26.8460    21.9360    48.4700 hc         1 HZ0       0.048033
     75 H24         27.3890    22.9130    47.1160 hc         1 HZ0       0.048033
     76 H25         25.6820    22.5470    47.2880 hc         1 HZ0       0.048033
     77 H313        26.8650    17.8700    48.1300 h1         1 HZ0       0.046367
     78 H311        27.5380    18.0120    46.5010 h1         1 HZ0       0.046367
     79 H312        28.2010    18.9710    47.8310 h1         1 HZ0       0.046367
     80 H26         24.3220    21.2470    46.2360 hc         1 HZ0       0.079700
     81 H27         23.1390    19.9780    46.3860 hc         1 HZ0       0.079700
     82 H28         24.3910    21.5250    48.7170 h1         1 HZ0       0.068700
     83 H29         22.7940    21.7720    48.0330 h1         1 HZ0       0.068700
     84 H30         19.0920    19.7710    48.5700 h1         1 HZ0       0.065033
     85 H31         19.8920    20.2000    50.0940 h1         1 HZ0       0.065033
     86 H32         20.2060    21.1470    48.6150 h1         1 HZ0       0.065033
     87 H33         28.4980    24.7320    42.4890 hc         1 HZ0       0.050700
     88 H34         28.9020    24.0560    44.0640 hc         1 HZ0       0.050700
     89 H35         29.9730    23.7990    42.6920 hc         1 HZ0       0.050700
     90 H36         28.2350    20.4360    42.4580 h1         1 HZ0       0.101700
     91 H431        30.8010    22.0530    41.9470 hc         1 HZ0       0.066700
     92 H442        31.5900    20.0090    40.7910 hc         1 HZ0       0.049367
     93 H441        30.0760    19.1810    41.1640 hc         1 HZ0       0.049367
     94 H443        30.0880    20.5630    40.0700 hc         1 HZ0       0.049367
     95 H37         30.2160    19.6730    43.7600 h1         1 HZ0       0.074700
     96 H461        31.3450    22.4630    44.2940 hc         1 HZ0       0.076700
     97 H38         29.7720    21.8760    44.8180 hc         1 HZ0       0.076700
     98 H39         30.8050    19.7580    47.2450 ho         1 HZ0       0.431000
     99 H40         33.2980    20.1170    46.2170 hn         1 HZ0       0.340500
    100 C20         22.8090    24.4050    45.2350 c3         1 HZ0       0.099300
    101 C26         26.6530    20.9820    45.1170 c          1 HZ0       0.618100
    102 O02         32.3900    21.4470    47.9430 os         1 HZ0      -0.424600
@<TRIPOS>BOND
     1     1    14 1   
     2     1    15 ar  
     3     1    20 ar  
     4     2     3 ar  
     5     2    16 ar  
     6     2    19 1   
     7     3    20 ar  
     8     3    21 1   
     9     4    21 1   
    10     4    22 2   
    11     4    23 1   
    12     5    23 1   
    13     5    24 1   
    14     5    36 1   
    15     5    53 1   
    16     6    26 1   
    17     6    27 1   
    18     6    54 1   
    19     6   101 1   
    20     7    55 1   
    21     7    56 1   
    22     7    57 1   
    23     7   102 1   
    24     8     9 1   
    25     8    44 1   
    26     8    58 1   
    27     8   102 1   
    28     9    10 2   
    29     9    59 1   
    30    10    11 1   
    31    10    60 1   
    32    11    12 2   
    33    11    61 1   
    34    12    13 1   
    35    12    14 1   
    36    13    62 1   
    37    13    63 1   
    38    13    64 1   
    39    14    65 1   
    40    14    66 1   
    41    15    16 ar  
    42    15    67 1   
    43    16    17 1   
    44    17    18 1   
    45    18    68 1   
    46    18    69 1   
    47    18    70 1   
    48    20    71 1   
    49    21   100 1   
    50    23    72 1   
    51    23    73 1   
    52    24   101 1   
    53    25   101 2   
    54    26    74 1   
    55    26    75 1   
    56    26    76 1   
    57    27    28 1   
    58    27    29 1   
    59    28    77 1   
    60    28    78 1   
    61    28    79 1   
    62    29    30 2   
    63    29    31 1   
    64    31    32 1   
    65    31    80 1   
    66    31    81 1   
    67    32    33 1   
    68    32    82 1   
    69    32    83 1   
    70    33    34 1   
    71    34    35 1   
    72    35    84 1   
    73    35    85 1   
    74    35    86 1   
    75    36    37 1   
    76    36    38 1   
    77    36    39 1   
    78    37    87 1   
    79    37    88 1   
    80    37    89 1   
    81    38    39 1   
    82    39    40 1   
    83    39    90 1   
    84    40    41 1   
    85    40    42 1   
    86    40    91 1   
    87    41    92 1   
    88    41    93 1   
    89    41    94 1   
    90    42    43 1   
    91    42    49 1   
    92    42    95 1   
    93    43    44 1   
    94    43    96 1   
    95    43    97 1   
    96    44    45 1   
    97    44    46 1   
    98    45    98 1   
    99    46    47 1   
   100    46    99 1   
   101    47    48 2   
   102    47    49 1   
   103    50   100 1   
   104    51   100 1   
   105    52   100 1   
@<TRIPOS>SUBSTRUCTURE
     1 HZ0         1 TEMP              0 ****  ****    0 ROOT
