@<TRIPOS>MOLECULE
HZ0
  102   105     1     0     0
SMALL
No Charge or Current Charge


@<TRIPOS>ATOM
      1 C10         26.6810    27.0360    46.1810 ca         1 HZ0      -0.033300
      2 C15         24.3970    27.0360    44.5250 ca         1 HZ0       0.064000
      3 C17         24.7490    25.8700    45.2400 ca         1 HZ0      -0.009000
      4 C21         24.4310    23.6720    44.0540 c          1 HZ0       0.612100
      5 C24         26.6300    22.5610    43.4460 c3         1 HZ0       0.191300
      6 C28         27.1730    21.0140    46.8800 c3         1 HZ0       0.056700
      7 C01         33.0300    22.0970    48.9690 c3         1 HZ0       0.147900
      8 C03         31.8940    21.9710    46.8110 c3         1 HZ0       0.166500
      9 C04         30.7880    22.9360    47.2120 c2         1 HZ0      -0.252200
     10 C05         30.5490    24.1390    46.6450 ce         1 HZ0      -0.155000
     11 C06         29.4710    25.0310    47.0940 ce         1 HZ0      -0.197000
     12 C07         29.0560    26.1750    46.4940 c2         1 HZ0      -0.084400
     13 C08         29.6180    26.7730    45.2100 c3         1 HZ0      -0.061900
     14 C09         27.9240    27.0190    47.0650 c3         1 HZ0      -0.001900
     15 C11         26.3010    28.2090    45.5040 ca         1 HZ0      -0.191000
     16 C12         25.1630    28.2140    44.6660 ca         1 HZ0       0.159100
     17 O13         24.7790    29.3410    43.9620 os         1 HZ0      -0.320100
     18 C14         25.5040    30.5820    44.0320 c3         1 HZ0       0.145900
     19 Cl1         23.0050    27.0210    43.4330 cl         1 HZ0      -0.158000
     20 C18         25.9110    25.8700    46.0300 ca         1 HZ0      -0.140000
     21 N19         24.0510    24.6350    45.0240 n          1 HZ0      -0.243400
     22 O22         23.6950    22.7310    43.7800 o          1 HZ0      -0.586100
     23 C23         25.7660    23.8310    43.3120 c3         1 HZ0      -0.160400
     24 O25         26.8550    22.3570    44.8570 os         1 HZ0      -0.460100
     25 O27         26.9030    20.0750    44.6340 o          1 HZ0      -0.454000
     26 C29         26.7730    22.3020    47.6390 c3         1 HZ0      -0.093100
     27 N30         26.6110    19.7910    47.5410 n          1 HZ0      -0.398800
     28 C31         27.6000    18.9400    48.2430 c3         1 HZ0       0.082300
     29 C32         25.3610    19.2230    47.1700 c          1 HZ0       0.612100
     30 O33         25.1720    18.0190    47.2920 o          1 HZ0      -0.563100
     31 C34         24.1970    20.1370    46.7420 c3         1 HZ0      -0.155400
     32 C35         23.4520    20.7120    47.9680 c3         1 HZ0       0.052600
     33 S36         22.5290    19.4110    48.9010 ss         1 HZ0      -0.231000
     34 S37         21.0250    18.8040    47.5770 ss         1 HZ0      -0.190000
     35 C38         19.6300    19.9530    47.9460 c3         1 HZ0       0.014900
     36 C39         27.9950    22.6190    42.7240 cx         1 HZ0       0.082000
     37 C40         28.8590    23.8350    43.0900 c3         1 HZ0      -0.079100
     38 O41         28.0070    22.2720    41.3190 op         1 HZ0      -0.419000
     39 C42         28.5790    21.3090    42.2350 cx         1 HZ0       0.094300
     40 C43         30.0750    21.0030    42.0710 c3         1 HZ0      -0.049700
     41 C44         30.2480    20.0090    40.8930 c3         1 HZ0      -0.082100
     42 C45         30.7440    20.4770    43.3890 c6         1 HZ0       0.197300
     43 C46         30.7310    21.4710    44.5550 c6         1 HZ0      -0.120400
     44 C47         31.4800    20.8750    45.7550 c6         1 HZ0       0.373400
     45 O48         30.6600    19.9370    46.4210 oh         1 HZ0      -0.728000
     46 N49         32.6410    20.1250    45.3350 ns         1 HZ0      -0.573900
     47 C50         33.0250    19.8290    44.0540 c          1 HZ0       0.722100
     48 O51         34.1160    19.3510    43.8040 o          1 HZ0      -0.545000
     49 O52         32.1130    20.1530    43.0840 os         1 HZ0      -0.440100
     50 H1          22.5880    25.2820    46.4180 h1         1 HZ0       0.047033
     51 H2          21.9380    24.5120    44.9430 h1         1 HZ0       0.047033
     52 H3          22.7060    23.5120    46.2130 h1         1 HZ0       0.047033
     53 H4          26.0440    21.7340    43.0160 h1         1 HZ0       0.108700
     54 H5          28.2640    20.9620    46.9770 h1         1 HZ0       0.091700
     55 H6          33.3480    21.4860    49.8240 h1         1 HZ0       0.037700
     56 H7          33.9260    22.5430    48.5180 h1         1 HZ0       0.037700
     57 H8          32.3940    22.9050    49.3510 h1         1 HZ0       0.037700
     58 H9          32.7270    22.5430    46.3790 h1         1 HZ0       0.054700
     59 H10         30.1630    22.5780    48.0310 ha         1 HZ0       0.188000
     60 H12         31.1840    24.4760    45.8260 ha         1 HZ0       0.171000
     61 H14         28.9720    24.7180    48.0130 ha         1 HZ0       0.173000
     62 H083        30.4650    26.2140    44.8020 hc         1 HZ0       0.046033
     63 H081        28.8540    26.8080    44.4240 hc         1 HZ0       0.046033
     64 H082        29.9640    27.8000    45.3760 hc         1 HZ0       0.046033
     65 H091        28.2810    28.0410    47.2380 hc         1 HZ0       0.060200
     66 H17         27.6420    26.6490    48.0590 hc         1 HZ0       0.060200
     67 H18         26.9080    29.1010    45.6260 ha         1 HZ0       0.123000
     68 H142        25.0260    31.3380    43.3970 h1         1 HZ0       0.046700
     69 H141        25.5220    30.9650    45.0610 h1         1 HZ0       0.046700
     70 H19         26.5370    30.4510    43.6850 h1         1 HZ0       0.046700
     71 H20         26.2130    24.9590    46.5360 ha         1 HZ0       0.132000
     72 H21         26.3150    24.7090    43.6580 hc         1 HZ0       0.083200
     73 H22         25.5390    23.9800    42.2510 hc         1 HZ0       0.083200
     74 H23         26.9340    22.1790    48.7170 hc         1 HZ0       0.048033
     75 H24         27.3920    23.1400    47.3050 hc         1 HZ0       0.048033
     76 H25         25.7240    22.5660    47.4720 hc         1 HZ0       0.048033
     77 H313        27.1010    18.3340    49.0100 h1         1 HZ0       0.046367
     78 H311        28.0950    18.2770    47.5230 h1         1 HZ0       0.046367
     79 H312        28.3560    19.5650    48.7370 h1         1 HZ0       0.046367
     80 H26         24.5560    21.0040    46.1860 hc         1 HZ0       0.079700
     81 H27         23.4930    19.5710    46.1220 hc         1 HZ0       0.079700
     82 H28         24.1680    21.1900    48.6490 h1         1 HZ0       0.068700
     83 H29         22.7340    21.4740    47.6400 h1         1 HZ0       0.068700
     84 H30         18.7760    19.7180    47.2990 h1         1 HZ0       0.065033
     85 H31         19.3300    19.8440    48.9950 h1         1 HZ0       0.065033
     86 H32         19.9470    20.9880    47.7650 h1         1 HZ0       0.065033
     87 H33         28.3960    24.7660    42.7440 hc         1 HZ0       0.050700
     88 H34         28.9900    23.9160    44.1750 hc         1 HZ0       0.050700
     89 H35         29.8530    23.8000    42.6340 hc         1 HZ0       0.050700
     90 H36         27.9770    20.4100    42.3660 h1         1 HZ0       0.101700
     91 H431        30.5960    21.9170    41.7670 hc         1 HZ0       0.066700
     92 H442        31.3070    19.8530    40.6550 hc         1 HZ0       0.049367
     93 H441        29.8030    19.0360    41.1320 hc         1 HZ0       0.049367
     94 H443        29.7620    20.3940    39.9870 hc         1 HZ0       0.049367
     95 H37         30.2310    19.5530    43.6990 h1         1 HZ0       0.074700
     96 H461        31.2180    22.4030    44.2400 hc         1 HZ0       0.076700
     97 H38         29.7060    21.7210    44.8490 hc         1 HZ0       0.076700
     98 H39         31.0380    19.9520    47.3310 ho         1 HZ0       0.530000
     99 H40         33.3180    19.8920    46.0460 hn         1 HZ0       0.340500
    100 C20         22.7410    24.4760    45.6890 c3         1 HZ0       0.099300
    101 C26         26.9760    21.0740    45.3360 c          1 HZ0       0.569100
    102 O02         32.3250    21.2840    48.0100 os         1 HZ0      -0.471000
@<TRIPOS>BOND
     1     1    14 1   
     2     1    15 ar  
     3     1    20 ar  
     4     2     3 ar  
     5     2    16 ar  
     6     2    19 1   
     7     3    20 ar  
     8     3    21 1   
     9     4    21 1   
    10     4    22 2   
    11     4    23 1   
    12     5    23 1   
    13     5    24 1   
    14     5    36 1   
    15     5    53 1   
    16     6    26 1   
    17     6    27 1   
    18     6    54 1   
    19     6   101 1   
    20     7    55 1   
    21     7    56 1   
    22     7    57 1   
    23     7   102 1   
    24     8     9 1   
    25     8    44 1   
    26     8    58 1   
    27     8   102 1   
    28     9    10 2   
    29     9    59 1   
    30    10    11 1   
    31    10    60 1   
    32    11    12 2   
    33    11    61 1   
    34    12    13 1   
    35    12    14 1   
    36    13    62 1   
    37    13    63 1   
    38    13    64 1   
    39    14    65 1   
    40    14    66 1   
    41    15    16 ar  
    42    15    67 1   
    43    16    17 1   
    44    17    18 1   
    45    18    68 1   
    46    18    69 1   
    47    18    70 1   
    48    20    71 1   
    49    21   100 1   
    50    23    72 1   
    51    23    73 1   
    52    24   101 1   
    53    25   101 2   
    54    26    74 1   
    55    26    75 1   
    56    26    76 1   
    57    27    28 1   
    58    27    29 1   
    59    28    77 1   
    60    28    78 1   
    61    28    79 1   
    62    29    30 2   
    63    29    31 1   
    64    31    32 1   
    65    31    80 1   
    66    31    81 1   
    67    32    33 1   
    68    32    82 1   
    69    32    83 1   
    70    33    34 1   
    71    34    35 1   
    72    35    84 1   
    73    35    85 1   
    74    35    86 1   
    75    36    37 1   
    76    36    38 1   
    77    36    39 1   
    78    37    87 1   
    79    37    88 1   
    80    37    89 1   
    81    38    39 1   
    82    39    40 1   
    83    39    90 1   
    84    40    41 1   
    85    40    42 1   
    86    40    91 1   
    87    41    92 1   
    88    41    93 1   
    89    41    94 1   
    90    42    43 1   
    91    42    49 1   
    92    42    95 1   
    93    43    44 1   
    94    43    96 1   
    95    43    97 1   
    96    44    45 1   
    97    44    46 1   
    98    45    98 1   
    99    46    47 1   
   100    46    99 1   
   101    47    48 2   
   102    47    49 1   
   103    50   100 1   
   104    51   100 1   
   105    52   100 1   
@<TRIPOS>SUBSTRUCTURE
     1 HZ0         1 TEMP              0 ****  ****    0 ROOT
