@<TRIPOS>MOLECULE
HZ1
  144   147     1     0     0
SMALL
No Charge or Current Charge


@<TRIPOS>ATOM
      1 C1          -3.9930    -0.2010    -0.4630 c5         1 HZ1      -0.068700
      2 O1          -6.2060     0.6810     0.0440 os         1 HZ1      -0.439100
      3 C2          -4.8310     0.6890     0.5190 c5         1 HZ1       0.159300
      4 C3          -4.2770     2.1640     0.3450 c5         1 HZ1       0.146300
      5 O3          -3.6650     2.5710     1.6010 os         1 HZ1      -0.448100
      6 C4          -3.1300     2.0590    -0.7120 c5         1 HZ1      -0.039700
      7 C5          -2.6380     0.5960    -0.4060 c5         1 HZ1      -0.046700
      8 O5          -0.8030     1.2030    -1.9920 os         1 HZ1      -0.408100
      9 C6          -1.4580     0.0850    -1.3500 c5         1 HZ1       0.205300
     10 O6          -2.9340    -0.4250    -3.3290 oh         1 HZ1      -0.641000
     11 C7          -1.8470    -0.9080    -2.5150 c5         1 HZ1       0.151000
     12 O7          -1.2180    -2.7780    -1.0380 os         1 HZ1      -0.441100
     13 C8          -2.1900    -2.3670    -2.0230 c3         1 HZ1       0.171300
     14 C9          -3.5950    -2.5870    -1.3960 c3         1 HZ1      -0.105400
     15 C10         -3.9850    -1.7350    -0.1420 c3         1 HZ1       0.232000
     16 O10         -5.2030    -4.2450     0.7140 o          1 HZ1      -0.495000
     17 C11         -0.4950    -0.7600    -3.3280 c5         1 HZ1       0.049000
     18 O11          0.6190    -1.4840    -2.7560 oh         1 HZ1      -0.651000
     19 C12         -0.2340     0.7770    -3.1590 c          1 HZ1       0.639100
     20 O12          0.3630     1.5240    -3.9240 o          1 HZ1      -0.484000
     21 C13         -7.1750     0.8130     1.0110 c          1 HZ1       0.610100
     22 C14         -8.5420     1.1280     0.3940 c3         1 HZ1      -0.138400
     23 C15         -9.3390    -0.1580     0.0780 c3         1 HZ1      -0.068400
     24 C16        -10.7330     0.1250    -0.5210 c3         1 HZ1      -0.076400
     25 C17        -11.5250    -1.1630    -0.8350 c3         1 HZ1      -0.075400
     26 C18        -12.9210    -0.8840    -1.4330 c3         1 HZ1      -0.075400
     27 C19        -13.7140    -2.1710    -1.7450 c3         1 HZ1      -0.074400
     28 C20        -15.1070    -1.8920    -2.3420 c3         1 HZ1      -0.089100
     29 C21         -4.5200     3.1090     2.5380 c          1 HZ1       0.602300
     30 C22         -3.8350     3.2930     3.8770 ce         1 HZ1      -0.182400
     31 C23         -2.3700     2.8650     3.9700 c3         1 HZ1      -0.038900
     32 C24         -4.4540     3.8050     4.9750 c2         1 HZ1      -0.126200
     33 C25         -5.8880     4.2820     5.1100 c3         1 HZ1      -0.067900
     34 C26         -3.6390     2.4170    -2.1420 c3         1 HZ1      -0.081100
     35 C27         -0.9220    -4.1090    -0.8930 c          1 HZ1       0.614100
     36 C28          0.0930    -4.3360     0.2270 c3         1 HZ1      -0.136400
     37 C29          1.5370    -4.3750    -0.3270 c3         1 HZ1      -0.069400
     38 C30          2.6030    -4.5800     0.7690 c3         1 HZ1      -0.023100
     39 C31         -3.1700    -2.0710     1.1460 c3         1 HZ1      -0.116100
     40 C33         -7.3610    -3.1770     0.7790 c3         1 HZ1      -0.162100
     41 C34         -0.5540    -1.1970    -4.8200 c3         1 HZ1      -0.119100
     42 C40         14.3830     4.3730    -0.4060 c3         1 HZ1      -0.108433
     43 C41         14.6180     4.4950     1.1220 c3         1 HZ1       0.226000
     44 C42         15.8910     3.7500     1.6020 c3         1 HZ1      -0.108433
     45 C43         14.6970     5.9840     1.5240 c3         1 HZ1      -0.108433
     46 O44         13.4620     3.9930     1.8340 os         1 HZ1      -0.482100
     47 C45         13.0460     2.6940     1.7400 c          1 HZ1       0.649100
     48 O46         13.5590     1.7980     1.0900 o          1 HZ1      -0.553000
     49 N47         11.9400     2.5480     2.5260 ns         1 HZ1      -0.509900
     50 C48         11.1790     1.3090     2.6790 c3         1 HZ1       0.122000
     51 C49         10.2640     1.0330     1.4680 c3         1 HZ1      -0.096400
     52 C50          9.4510    -0.2720     1.6130 c3         1 HZ1      -0.072400
     53 C51          8.5340    -0.5510     0.4020 c3         1 HZ1      -0.075400
     54 C52          7.7330    -1.8640     0.5420 c3         1 HZ1      -0.072400
     55 C54          6.0500    -3.4630    -0.5140 ca         1 HZ1      -0.105300
     56 C55          4.7480    -3.4360     0.0270 ca         1 HZ1      -0.070000
     57 C56          4.0110    -4.6240     0.1910 ca         1 HZ1      -0.116300
     58 C57          4.5820    -5.8520    -0.1910 ca         1 HZ1      -0.065000
     59 C58          5.8790    -5.8890    -0.7290 ca         1 HZ1      -0.203000
     60 C59          6.6130    -4.7040    -0.8910 ca         1 HZ1       0.140100
     61 O60          7.8720    -4.7730    -1.4130 oh         1 HZ1      -0.534100
     62 H1          -4.4680    -0.1280    -1.4430 hc         1 HZ1       0.091700
     63 H2          -4.7450     0.3290     1.5530 h1         1 HZ1       0.087700
     64 H3          -5.0350     2.8950     0.0300 h1         1 HZ1       0.086700
     65 H6          -0.7010    -0.3990    -0.7170 h1         1 HZ1       0.086700
     66 HO6         -3.0450    -1.0430    -4.0840 ho         1 HZ1       0.454000
     67 H8          -2.1160    -3.0100    -2.9100 h1         1 HZ1       0.072700
     68 H9          -4.3460    -2.4130    -2.1750 hc         1 HZ1       0.072200
     69 H9A         -3.6810    -3.6510    -1.1600 hc         1 HZ1       0.072200
     70 HO11         1.4190    -1.2880    -3.2940 ho         1 HZ1       0.466000
     71 H14         -9.1200     1.7480     1.0900 hc         1 HZ1       0.071200
     72 H14A        -8.3870     1.6520    -0.5570 hc         1 HZ1       0.071200
     73 H15         -8.7630    -0.7680    -0.6280 hc         1 HZ1       0.052700
     74 H15A        -9.4560    -0.7450     0.9980 hc         1 HZ1       0.052700
     75 H16        -11.3100     0.7400     0.1810 hc         1 HZ1       0.037200
     76 H16A       -10.6180     0.7110    -1.4420 hc         1 HZ1       0.037200
     77 H17        -10.9480    -1.7780    -1.5380 hc         1 HZ1       0.039200
     78 H17A       -11.6380    -1.7500     0.0850 hc         1 HZ1       0.039200
     79 H18        -13.4970    -0.2680    -0.7310 hc         1 HZ1       0.037200
     80 H18A       -12.8080    -0.2980    -2.3550 hc         1 HZ1       0.037200
     81 H19        -13.1430    -2.7900    -2.4490 hc         1 HZ1       0.037200
     82 H19A       -13.8320    -2.7580    -0.8260 hc         1 HZ1       0.037200
     83 H20        -15.6310    -2.8340    -2.5460 hc         1 HZ1       0.031700
     84 H20A       -15.7170    -1.3050    -1.6450 hc         1 HZ1       0.031700
     85 H20B       -15.0220    -1.3360    -3.2830 hc         1 HZ1       0.031700
     86 H23         -1.7450     3.4330     3.2710 hc         1 HZ1       0.044367
     87 H23A        -1.9550     3.0210     4.9730 hc         1 HZ1       0.044367
     88 H23B        -2.2510     1.8000     3.7350 hc         1 HZ1       0.044367
     89 H24         -3.8940     3.9060     5.9070 ha         1 HZ1       0.168000
     90 H25         -6.0970     5.1140     4.4260 hc         1 HZ1       0.056033
     91 H25A        -6.5980     3.4750     4.8930 hc         1 HZ1       0.056033
     92 H25B        -6.0920     4.6340     6.1280 hc         1 HZ1       0.056033
     93 H26         -3.9510     3.4670    -2.1780 hc         1 HZ1       0.043033
     94 H26A        -2.8660     2.2960    -2.9070 hc         1 HZ1       0.043033
     95 H26B        -4.5080     1.8230    -2.4460 hc         1 HZ1       0.043033
     96 H28          0.0350    -3.5010     0.9350 hc         1 HZ1       0.074200
     97 H28A        -0.1280    -5.2850     0.7280 hc         1 HZ1       0.074200
     98 H29          1.6200    -5.1830    -1.0650 hc         1 HZ1       0.058200
     99 H29A         1.7460    -3.4370    -0.8570 hc         1 HZ1       0.058200
    100 H30          2.5240    -3.7720     1.5070 hc         1 HZ1       0.045200
    101 H30A         2.3890    -5.5100     1.3120 hc         1 HZ1       0.045200
    102 H31         -3.6700    -1.6840     2.0410 hc         1 HZ1       0.056700
    103 H31A        -3.0340    -3.1500     1.2710 hc         1 HZ1       0.056700
    104 H31B        -2.1650    -1.6410     1.1140 hc         1 HZ1       0.056700
    105 H33         -7.8470    -2.9030    -0.1630 hc         1 HZ1       0.071367
    106 H33A        -7.7590    -4.1180     1.1740 hc         1 HZ1       0.071367
    107 H33B        -7.5900    -2.3260     1.4280 hc         1 HZ1       0.071367
    108 H34         -1.2810    -0.6070    -5.3910 hc         1 HZ1       0.060700
    109 H34A         0.4160    -1.0640    -5.3150 hc         1 HZ1       0.060700
    110 H34B        -0.8290    -2.2550    -4.9160 hc         1 HZ1       0.060700
    111 H40         14.4490     3.3350    -0.7490 hc         1 HZ1       0.048811
    112 H40A        13.3960     4.7660    -0.6800 hc         1 HZ1       0.048811
    113 H40B        15.1390     4.9450    -0.9550 hc         1 HZ1       0.048811
    114 H42         16.7910     4.2670     1.2480 hc         1 HZ1       0.048811
    115 H42A        15.9310     3.7130     2.6970 hc         1 HZ1       0.048811
    116 H42B        15.9350     2.7250     1.2190 hc         1 HZ1       0.048811
    117 H43         13.7830     6.5160     1.2320 hc         1 HZ1       0.048811
    118 H43A        14.8220     6.0890     2.6090 hc         1 HZ1       0.048811
    119 H43B        15.5470     6.4760     1.0350 hc         1 HZ1       0.048811
    120 HN47        11.6320     3.3810     3.0120 hn         1 HZ1       0.323500
    121 H48         11.8800     0.4740     2.8110 h1         1 HZ1       0.049700
    122 H48A        10.5680     1.3850     3.5890 h1         1 HZ1       0.049700
    123 H49          9.5750     1.8770     1.3400 hc         1 HZ1       0.044200
    124 H49A        10.8750     0.9760     0.5580 hc         1 HZ1       0.044200
    125 H50         10.1430    -1.1130     1.7430 hc         1 HZ1       0.042700
    126 H50A         8.8400    -0.2160     2.5230 hc         1 HZ1       0.042700
    127 H51          7.8360     0.2860     0.2780 hc         1 HZ1       0.037200
    128 H51A         9.1450    -0.5980    -0.5080 hc         1 HZ1       0.037200
    129 H52          8.4310    -2.7000     0.6700 hc         1 HZ1       0.044700
    130 H52A         7.1180    -1.8190     1.4490 hc         1 HZ1       0.044700
    131 H53          6.1190    -1.3160    -0.7930 hc         1 HZ1       0.046700
    132 H53A         7.4250    -2.1680    -1.5850 hc         1 HZ1       0.046700
    133 H55          4.3060    -2.4860     0.3210 ha         1 HZ1       0.111000
    134 H57          4.0210    -6.7760    -0.0720 ha         1 HZ1       0.112000
    135 H58          6.3070    -6.8460    -1.0190 ha         1 HZ1       0.113000
    136 HO60         8.0740    -5.7120    -1.6080 ho         1 HZ1       0.463000
    137 H4          -2.3380     2.7850    -0.4890 hc         1 HZ1       0.082700
    138 H5          -2.2380     0.5790     0.6160 hc         1 HZ1       0.065700
    139 O9          -5.3820    -2.0110     0.1370 os         1 HZ1      -0.474100
    140 C32         -5.8610    -3.2300     0.5460 c          1 HZ1       0.609100
    141 O2          -7.0020     0.6710     2.2140 o          1 HZ1      -0.485000
    142 O4          -5.6820     3.4120     2.3070 o          1 HZ1      -0.486000
    143 O8          -1.3940    -5.0090    -1.5730 o          1 HZ1      -0.490000
    144 C53          6.8200    -2.1520    -0.6700 c3         1 HZ1      -0.017100
@<TRIPOS>BOND
     1     1     3 1   
     2     1     7 1   
     3     1    15 1   
     4     1    62 1   
     5     2     3 1   
     6     2    21 1   
     7     3     4 1   
     8     3    63 1   
     9     4     5 1   
    10     4     6 1   
    11     4    64 1   
    12     5    29 1   
    13     6     7 1   
    14     6    34 1   
    15     6   137 1   
    16     7     9 1   
    17     7   138 1   
    18     8     9 1   
    19     8    19 1   
    20     9    11 1   
    21     9    65 1   
    22    10    11 1   
    23    10    66 1   
    24    11    13 1   
    25    11    17 1   
    26    12    13 1   
    27    12    35 1   
    28    13    14 1   
    29    13    67 1   
    30    14    15 1   
    31    14    68 1   
    32    14    69 1   
    33    15    39 1   
    34    15   139 1   
    35    16   140 2   
    36    17    18 1   
    37    17    19 1   
    38    17    41 1   
    39    18    70 1   
    40    19    20 2   
    41    21    22 1   
    42    21   141 2   
    43    22    23 1   
    44    22    71 1   
    45    22    72 1   
    46    23    24 1   
    47    23    73 1   
    48    23    74 1   
    49    24    25 1   
    50    24    75 1   
    51    24    76 1   
    52    25    26 1   
    53    25    77 1   
    54    25    78 1   
    55    26    27 1   
    56    26    79 1   
    57    26    80 1   
    58    27    28 1   
    59    27    81 1   
    60    27    82 1   
    61    28    83 1   
    62    28    84 1   
    63    28    85 1   
    64    29    30 1   
    65    29   142 2   
    66    30    31 1   
    67    30    32 2   
    68    31    86 1   
    69    31    87 1   
    70    31    88 1   
    71    32    33 1   
    72    32    89 1   
    73    33    90 1   
    74    33    91 1   
    75    33    92 1   
    76    34    93 1   
    77    34    94 1   
    78    34    95 1   
    79    35    36 1   
    80    35   143 2   
    81    36    37 1   
    82    36    96 1   
    83    36    97 1   
    84    37    38 1   
    85    37    98 1   
    86    37    99 1   
    87    38    57 1   
    88    38   100 1   
    89    38   101 1   
    90    39   102 1   
    91    39   103 1   
    92    39   104 1   
    93    40   105 1   
    94    40   106 1   
    95    40   107 1   
    96    40   140 1   
    97    41   108 1   
    98    41   109 1   
    99    41   110 1   
   100    42    43 1   
   101    42   111 1   
   102    42   112 1   
   103    42   113 1   
   104    43    44 1   
   105    43    45 1   
   106    43    46 1   
   107    44   114 1   
   108    44   115 1   
   109    44   116 1   
   110    45   117 1   
   111    45   118 1   
   112    45   119 1   
   113    46    47 1   
   114    47    48 2   
   115    47    49 1   
   116    49    50 1   
   117    49   120 1   
   118    50    51 1   
   119    50   121 1   
   120    50   122 1   
   121    51    52 1   
   122    51   123 1   
   123    51   124 1   
   124    52    53 1   
   125    52   125 1   
   126    52   126 1   
   127    53    54 1   
   128    53   127 1   
   129    53   128 1   
   130    54   129 1   
   131    54   130 1   
   132    54   144 1   
   133    55    56 ar  
   134    55    60 ar  
   135    55   144 1   
   136    56    57 ar  
   137    56   133 1   
   138    57    58 ar  
   139    58    59 ar  
   140    58   134 1   
   141    59    60 ar  
   142    59   135 1   
   143    60    61 1   
   144    61   136 1   
   145   131   144 1   
   146   132   144 1   
   147   139   140 1   
@<TRIPOS>SUBSTRUCTURE
     1 HZ1         1 TEMP              0 ****  ****    0 ROOT
