@<TRIPOS>MOLECULE
HZ1
  144   147     1     0     0
SMALL
abcg2


@<TRIPOS>ATOM
      1 C1          -4.9210     0.5900    -0.3720 c5         1 HZ1      -0.068700
      2 O1          -7.3480     0.3840    -0.3280 os         1 HZ1      -0.439100
      3 C2          -6.2160     0.7770     0.4390 c5         1 HZ1       0.159300
      4 C3          -6.3010     2.2890     0.7660 c5         1 HZ1       0.146300
      5 O3          -6.1920     2.4990     2.1750 os         1 HZ1      -0.448100
      6 C4          -5.0850     2.9350     0.0930 c5         1 HZ1      -0.039700
      7 C5          -4.0810     1.7690     0.1390 c5         1 HZ1      -0.046700
      8 O5          -2.3990     3.3570    -0.6540 os         1 HZ1      -0.408100
      9 C6          -2.6730     1.9600    -0.4280 c5         1 HZ1       0.205300
     10 O6          -3.3210     1.5860    -2.6690 oh         1 HZ1      -0.641000
     11 C7          -2.2990     1.2960    -1.7520 c5         1 HZ1       0.151000
     12 O7          -1.1590    -0.5300    -0.6390 os         1 HZ1      -0.441100
     13 C8          -2.0860    -0.2210    -1.6720 c3         1 HZ1       0.171300
     14 C9          -3.3460    -1.0620    -1.4740 c3         1 HZ1      -0.105400
     15 C10         -4.2750    -0.8080    -0.2730 c3         1 HZ1       0.232000
     16 O10         -4.4000    -3.6680    -0.1800 o          1 HZ1      -0.495000
     17 C11         -1.0650     2.1480    -2.1500 c5         1 HZ1       0.049000
     18 O11          0.0190     1.8070    -1.3170 oh         1 HZ1      -0.651000
     19 C12         -1.5470     3.5180    -1.6640 c          1 HZ1       0.639100
     20 O12         -1.1960     4.6010    -2.0400 o          1 HZ1      -0.484000
     21 C13         -8.2280    -0.4750     0.1860 c          1 HZ1       0.610100
     22 C14         -9.3340    -0.7610    -0.7930 c3         1 HZ1      -0.138400
     23 C15        -10.3300    -1.7960    -0.3000 c3         1 HZ1      -0.068400
     24 C16        -11.4750    -2.0060    -1.2850 c3         1 HZ1      -0.076400
     25 C17        -12.4760    -3.0490    -0.8080 c3         1 HZ1      -0.075400
     26 C18        -13.6410    -3.2480    -1.7690 c3         1 HZ1      -0.075400
     27 C19        -14.6480    -4.2850    -1.2870 c3         1 HZ1      -0.074400
     28 C20        -15.8140    -4.4670    -2.2500 c3         1 HZ1      -0.089100
     29 C21         -7.2880     2.3560     2.9230 c          1 HZ1       0.602300
     30 C22         -6.9960     2.5860     4.3560 ce         1 HZ1      -0.182400
     31 C23         -5.6260     3.0760     4.7340 c3         1 HZ1      -0.038900
     32 C24         -7.9300     2.3500     5.2900 c2         1 HZ1      -0.126200
     33 C25         -9.3270     1.8440     5.1340 c3         1 HZ1      -0.067900
     34 C26         -5.4870     3.4580    -1.2840 c3         1 HZ1      -0.081100
     35 C27          0.0500    -1.0030    -0.9520 c          1 HZ1       0.614100
     36 C28          0.9110    -1.1310     0.2720 c3         1 HZ1      -0.136400
     37 C29          2.2020    -1.8910     0.0180 c3         1 HZ1      -0.069400
     38 C30          3.0740    -1.9810     1.2710 c3         1 HZ1      -0.023100
     39 C31         -3.6270    -1.0510     1.0840 c3         1 HZ1      -0.116100
     40 C33         -6.7450    -3.5950    -0.6600 c3         1 HZ1      -0.162100
     41 C34         -0.6810     2.1120    -3.6130 c3         1 HZ1      -0.119100
     42 C40         18.7630     1.1380     0.8060 c3         1 HZ1      -0.108433
     43 C41         17.8940     2.3040     0.3510 c3         1 HZ1       0.226000
     44 C42         17.8170     3.4000     1.4080 c3         1 HZ1      -0.108433
     45 C43         18.4470     2.8810    -0.9470 c3         1 HZ1      -0.108433
     46 O44         16.5700     1.8510    -0.0330 os         1 HZ1      -0.482100
     47 C45         15.7340     1.2570     0.8220 c          1 HZ1       0.649100
     48 O46         15.9450     1.0630     2.0040 o          1 HZ1      -0.553000
     49 N47         14.5970     0.9020     0.1970 ns         1 HZ1      -0.509900
     50 C48         13.5410     0.1810     0.8760 c3         1 HZ1       0.122000
     51 C49         12.3510    -0.0140    -0.0480 c3         1 HZ1      -0.096400
     52 C50         11.2230    -0.7820     0.6300 c3         1 HZ1      -0.072400
     53 C51         10.0370    -1.0240    -0.2930 c3         1 HZ1      -0.075400
     54 C52          8.9040    -1.7870     0.3820 c3         1 HZ1      -0.072400
     55 C54          6.6000    -2.8030     0.0650 ca         1 HZ1      -0.105300
     56 C55          5.4330    -2.1250     0.3950 ca         1 HZ1      -0.070000
     57 C56          4.3430    -2.7440     1.0070 ca         1 HZ1      -0.116300
     58 C57          4.4500    -4.0980     1.2970 ca         1 HZ1      -0.065000
     59 C58          5.6020    -4.8060     0.9830 ca         1 HZ1      -0.203000
     60 C59          6.6720    -4.1680     0.3650 ca         1 HZ1       0.140100
     61 O60          7.8060    -4.8260     0.0330 oh         1 HZ1      -0.534100
     62 H1          -5.1630     0.7540    -1.4240 hc         1 HZ1       0.091700
     63 H2          -6.1790     0.2020     1.3650 h1         1 HZ1       0.087700
     64 H3          -7.2380     2.7170     0.4020 h1         1 HZ1       0.086700
     65 H6          -1.9640     1.6200     0.3290 h1         1 HZ1       0.086700
     66 HO6         -3.1210     1.1870    -3.5240 ho         1 HZ1       0.454000
     67 H8          -1.6780    -0.5380    -2.6380 h1         1 HZ1       0.072700
     68 H9          -3.9470    -0.9770    -2.3810 hc         1 HZ1       0.072200
     69 H9A         -2.9970    -2.0950    -1.4400 hc         1 HZ1       0.072200
     70 HO11         0.8040     2.2790    -1.6180 ho         1 HZ1       0.466000
     71 H14         -9.8430     0.1840    -1.0130 hc         1 HZ1       0.071200
     72 H14A        -8.8850    -1.0760    -1.7410 hc         1 HZ1       0.071200
     73 H15         -9.8220    -2.7500    -0.1310 hc         1 HZ1       0.052700
     74 H15A       -10.7370    -1.4890     0.6660 hc         1 HZ1       0.052700
     75 H16        -11.9910    -1.0540    -1.4500 hc         1 HZ1       0.037200
     76 H16A       -11.0720    -2.3060    -2.2580 hc         1 HZ1       0.037200
     77 H17        -11.9610    -4.0040    -0.6560 hc         1 HZ1       0.039200
     78 H17A       -12.8640    -2.7550     0.1740 hc         1 HZ1       0.039200
     79 H18        -14.1520    -2.2910    -1.9220 hc         1 HZ1       0.037200
     80 H18A       -13.2560    -3.5460    -2.7510 hc         1 HZ1       0.037200
     81 H19        -14.1390    -5.2420    -1.1390 hc         1 HZ1       0.037200
     82 H19A       -15.0290    -3.9890    -0.3040 hc         1 HZ1       0.037200
     83 H20        -16.5330    -5.1980    -1.8770 hc         1 HZ1       0.031700
     84 H20A       -16.3480    -3.5270    -2.4010 hc         1 HZ1       0.031700
     85 H20B       -15.4710    -4.8110    -3.2270 hc         1 HZ1       0.031700
     86 H23         -5.3740     4.0130     4.2370 hc         1 HZ1       0.044367
     87 H23A        -5.5690     3.2450     5.8090 hc         1 HZ1       0.044367
     88 H23B        -4.8500     2.3550     4.4710 hc         1 HZ1       0.044367
     89 H24         -7.6270     2.5540     6.3120 ha         1 HZ1       0.168000
     90 H25         -9.9800     2.6110     4.7120 hc         1 HZ1       0.056033
     91 H25A        -9.3900     0.9800     4.4760 hc         1 HZ1       0.056033
     92 H25B        -9.7320     1.5690     6.1060 hc         1 HZ1       0.056033
     93 H26         -6.2230     4.2530    -1.1590 hc         1 HZ1       0.043033
     94 H26A        -4.6440     3.8710    -1.8290 hc         1 HZ1       0.043033
     95 H26B        -5.9450     2.6930    -1.9100 hc         1 HZ1       0.043033
     96 H28          1.1240    -0.1160     0.6260 hc         1 HZ1       0.074200
     97 H28A         0.3280    -1.6050     1.0670 hc         1 HZ1       0.074200
     98 H29          1.9750    -2.9010    -0.3320 hc         1 HZ1       0.058200
     99 H29A         2.7710    -1.4070    -0.7790 hc         1 HZ1       0.058200
    100 H30          3.3090    -0.9720     1.6220 hc         1 HZ1       0.045200
    101 H30A         2.5100    -2.4660     2.0730 hc         1 HZ1       0.045200
    102 H31         -4.3670    -1.0040     1.8850 hc         1 HZ1       0.056700
    103 H31A        -3.1300    -2.0150     1.1310 hc         1 HZ1       0.056700
    104 H31B        -2.8760    -0.2940     1.2950 hc         1 HZ1       0.056700
    105 H33         -7.2190    -3.1310    -1.5240 hc         1 HZ1       0.071367
    106 H33A        -6.6690    -4.6660    -0.8240 hc         1 HZ1       0.071367
    107 H33B        -7.3910    -3.4220     0.2020 hc         1 HZ1       0.071367
    108 H34         -1.4750     2.4610    -4.2700 hc         1 HZ1       0.060700
    109 H34A         0.1760     2.7650    -3.7900 hc         1 HZ1       0.060700
    110 H34B        -0.3960     1.1010    -3.9060 hc         1 HZ1       0.060700
    111 H40         18.4340     0.7150     1.7530 hc         1 HZ1       0.048811
    112 H40A        18.7790     0.3440     0.0570 hc         1 HZ1       0.048811
    113 H40B        19.7880     1.4860     0.9360 hc         1 HZ1       0.048811
    114 H42         18.8110     3.8240     1.5570 hc         1 HZ1       0.048811
    115 H42A        17.1610     4.2100     1.0840 hc         1 HZ1       0.048811
    116 H42B        17.4660     3.0280     2.3670 hc         1 HZ1       0.048811
    117 H43         18.4820     2.1270    -1.7340 hc         1 HZ1       0.048811
    118 H43A        17.8430     3.7190    -1.2980 hc         1 HZ1       0.048811
    119 H43B        19.4620     3.2460    -0.7890 hc         1 HZ1       0.048811
    120 HN47        14.5270     1.0320    -0.8000 hn         1 HZ1       0.323500
    121 H48         13.9000    -0.7950     1.2190 h1         1 HZ1       0.049700
    122 H48A        13.2290     0.7340     1.7650 h1         1 HZ1       0.049700
    123 H49         11.9830     0.9610    -0.3830 hc         1 HZ1       0.044200
    124 H49A        12.6690    -0.5550    -0.9460 hc         1 HZ1       0.044200
    125 H50         11.6040    -1.7440     0.9900 hc         1 HZ1       0.042700
    126 H50A        10.8930    -0.2330     1.5180 hc         1 HZ1       0.042700
    127 H51          9.6600    -0.0660    -0.6650 hc         1 HZ1       0.037200
    128 H51A        10.3720    -1.5810    -1.1750 hc         1 HZ1       0.037200
    129 H52          9.2910    -2.7220     0.7950 hc         1 HZ1       0.044700
    130 H52A         8.5270    -1.2070     1.2310 hc         1 HZ1       0.044700
    131 H53          7.3860    -1.1380    -0.9920 hc         1 HZ1       0.046700
    132 H53A         8.1300    -2.6590    -1.4290 hc         1 HZ1       0.046700
    133 H55          5.3700    -1.0680     0.1550 ha         1 HZ1       0.111000
    134 H57          3.6260    -4.6160     1.7740 ha         1 HZ1       0.112000
    135 H58          5.6630    -5.8640     1.2170 ha         1 HZ1       0.113000
    136 HO60         7.7360    -5.7550     0.2810 ho         1 HZ1       0.463000
    137 H4          -4.7310     3.7760     0.6920 hc         1 HZ1       0.082700
    138 H5          -3.9250     1.5980     1.2100 hc         1 HZ1       0.065700
    139 O9          -5.4240    -1.6820    -0.4580 os         1 HZ1      -0.474100
    140 C32         -5.3850    -3.0100    -0.4060 c          1 HZ1       0.609100
    141 O2          -8.1410    -0.9540     1.2870 o          1 HZ1      -0.485000
    142 O4          -8.3670     2.0810     2.4540 o          1 HZ1      -0.486000
    143 O8           0.3860    -1.2960    -2.0700 o          1 HZ1      -0.490000
    144 C53          7.7510    -2.0830    -0.5800 c3         1 HZ1      -0.017100
@<TRIPOS>BOND
     1     1     3 1   
     2     1     7 1   
     3     1    15 1   
     4     1    62 1   
     5     2     3 1   
     6     2    21 1   
     7     3     4 1   
     8     3    63 1   
     9     4     5 1   
    10     4     6 1   
    11     4    64 1   
    12     5    29 1   
    13     6     7 1   
    14     6    34 1   
    15     6   137 1   
    16     7     9 1   
    17     7   138 1   
    18     8     9 1   
    19     8    19 1   
    20     9    11 1   
    21     9    65 1   
    22    10    11 1   
    23    10    66 1   
    24    11    13 1   
    25    11    17 1   
    26    12    13 1   
    27    12    35 1   
    28    13    14 1   
    29    13    67 1   
    30    14    15 1   
    31    14    68 1   
    32    14    69 1   
    33    15    39 1   
    34    15   139 1   
    35    16   140 2   
    36    17    18 1   
    37    17    19 1   
    38    17    41 1   
    39    18    70 1   
    40    19    20 2   
    41    21    22 1   
    42    21   141 2   
    43    22    23 1   
    44    22    71 1   
    45    22    72 1   
    46    23    24 1   
    47    23    73 1   
    48    23    74 1   
    49    24    25 1   
    50    24    75 1   
    51    24    76 1   
    52    25    26 1   
    53    25    77 1   
    54    25    78 1   
    55    26    27 1   
    56    26    79 1   
    57    26    80 1   
    58    27    28 1   
    59    27    81 1   
    60    27    82 1   
    61    28    83 1   
    62    28    84 1   
    63    28    85 1   
    64    29    30 1   
    65    29   142 2   
    66    30    31 1   
    67    30    32 2   
    68    31    86 1   
    69    31    87 1   
    70    31    88 1   
    71    32    33 1   
    72    32    89 1   
    73    33    90 1   
    74    33    91 1   
    75    33    92 1   
    76    34    93 1   
    77    34    94 1   
    78    34    95 1   
    79    35    36 1   
    80    35   143 2   
    81    36    37 1   
    82    36    96 1   
    83    36    97 1   
    84    37    38 1   
    85    37    98 1   
    86    37    99 1   
    87    38    57 1   
    88    38   100 1   
    89    38   101 1   
    90    39   102 1   
    91    39   103 1   
    92    39   104 1   
    93    40   105 1   
    94    40   106 1   
    95    40   107 1   
    96    40   140 1   
    97    41   108 1   
    98    41   109 1   
    99    41   110 1   
   100    42    43 1   
   101    42   111 1   
   102    42   112 1   
   103    42   113 1   
   104    43    44 1   
   105    43    45 1   
   106    43    46 1   
   107    44   114 1   
   108    44   115 1   
   109    44   116 1   
   110    45   117 1   
   111    45   118 1   
   112    45   119 1   
   113    46    47 1   
   114    47    48 2   
   115    47    49 1   
   116    49    50 1   
   117    49   120 1   
   118    50    51 1   
   119    50   121 1   
   120    50   122 1   
   121    51    52 1   
   122    51   123 1   
   123    51   124 1   
   124    52    53 1   
   125    52   125 1   
   126    52   126 1   
   127    53    54 1   
   128    53   127 1   
   129    53   128 1   
   130    54   129 1   
   131    54   130 1   
   132    54   144 1   
   133    55    56 ar  
   134    55    60 ar  
   135    55   144 1   
   136    56    57 ar  
   137    56   133 1   
   138    57    58 ar  
   139    58    59 ar  
   140    58   134 1   
   141    59    60 ar  
   142    59   135 1   
   143    60    61 1   
   144    61   136 1   
   145   131   144 1   
   146   132   144 1   
   147   139   140 1   
@<TRIPOS>SUBSTRUCTURE
     1 HZ1         1 TEMP              0 ****  ****    0 ROOT
