@<TRIPOS>MOLECULE
HZ2
   82    87     1     0     0
SMALL
No Charge or Current Charge


@<TRIPOS>ATOM
      1 O22          7.4710    -3.9880     1.3480 oh         1 HZ2      -0.666000
      2 O32         -3.4930    -2.2720    -3.8200 oh         1 HZ2      -0.705000
      3 C02         -3.0280     5.6120     0.4350 c3         1 HZ2       0.015500
      4 C03         -3.1680     4.1420    -0.0470 c3         1 HZ2      -0.101400
      5 C04         -1.8370     3.4960    -0.5130 c3         1 HZ2       0.170800
      6 C06         -0.5550     1.4360    -1.0620 c3         1 HZ2       0.159800
      7 C07          0.4590     1.5220     0.1180 c3         1 HZ2       0.224800
      8 C09          2.8070     0.6200     0.6740 ca         1 HZ2       0.449900
      9 C10          3.9150    -0.1580     0.2780 ca         1 HZ2      -0.107600
     10 C12          5.3370    -1.4170    -0.7320 cc         1 HZ2       0.396700
     11 C14          7.1780    -1.4960     1.0440 c5         1 HZ2       0.315300
     12 C16          9.3050    -1.0700     0.0980 c5         1 HZ2       0.129300
     13 C17          9.1430    -0.9280    -1.4480 c3         1 HZ2       0.148600
     14 C19          9.3070    -2.5480     0.6100 c5         1 HZ2       0.098300
     15 C21          7.7860    -2.8560     0.5290 c5         1 HZ2       0.135300
     16 C23          4.9760    -0.2660     1.1410 ca         1 HZ2       0.144500
     17 C25          3.8890     1.0660     2.6470 ca         1 HZ2       0.184900
     18 C27         -2.8810     1.7190    -1.9220 c3         1 HZ2       0.173800
     19 C28         -3.1400     0.2110    -2.2320 c5         1 HZ2       0.167300
     20 C30         -4.2240    -1.7220    -1.4690 c5         1 HZ2       0.323300
     21 C31         -4.4740    -1.5930    -3.0230 c5         1 HZ2       0.098300
     22 C33         -4.2990    -0.0620    -3.2380 c5         1 HZ2       0.082300
     23 C36         -6.6830    -1.4280    -0.8450 cc         1 HZ2       0.448700
     24 C38         -6.7430    -2.6010     0.9610 ca         1 HZ2      -0.088600
     25 C39         -7.0890    -3.2840     2.1450 ca         1 HZ2       0.445900
     26 C42         -4.9170    -3.9790     2.3310 ca         1 HZ2       0.162900
     27 C44         -5.4410    -2.6650     0.5330 ca         1 HZ2       0.098500
     28 C45         -4.4410     6.3350     0.4400 c          1 HZ2       0.722000
     29 N01         -2.2410     5.6760     1.7200 n8         1 HZ2      -0.990200
     30 N05         -1.9050     2.0380    -0.8250 n3         1 HZ2      -0.726600
     31 N11          4.1190    -0.8720    -0.9060 nd         1 HZ2      -0.553100
     32 N13          5.8850    -1.0640     0.5070 na         1 HZ2      -0.292300
     33 N24          4.9910     0.3390     2.3440 nb         1 HZ2      -0.227000
     34 N26          2.7930     1.2390     1.8710 nb         1 HZ2      -0.288000
     35 N35         -5.3950    -1.9260    -0.6140 na         1 HZ2      -0.320300
     36 N37         -7.5420    -1.8280     0.1130 nd         1 HZ2      -0.528100
     37 N40         -8.3490    -3.2810     2.6570 nv         1 HZ2      -1.070900
     38 N41         -6.1730    -3.9770     2.8400 nb         1 HZ2      -0.319000
     39 N43         -4.4980    -3.3550     1.2030 nb         1 HZ2      -0.227000
     40 O15          8.1730    -0.4730     0.7820 os         1 HZ2      -0.428000
     41 O18          9.3620     0.4280    -1.8710 oh         1 HZ2      -0.696000
     42 O20          9.7850    -2.6810     1.9640 oh         1 HZ2      -0.683000
     43 O29         -3.5760    -0.4970    -1.0520 os         1 HZ2      -0.415000
     44 O34         -3.9660     0.2250    -4.6110 oh         1 HZ2      -0.713000
     45 O46         -5.2760     5.9830     1.2660 o          1 HZ2      -0.727000
     46 O47         -4.6210     7.2650    -0.3360 o          1 HZ2      -0.727000
     47 H1           8.2050    -4.0040     2.0120 ho         1 HZ2       0.508000
     48 H3          -2.4290     6.1350    -0.3230 h1         1 HZ2       0.038700
     49 H4          -3.6150     3.5330     0.7470 hc         1 HZ2       0.052700
     50 H5          -3.8740     4.1390    -0.8850 hc         1 HZ2       0.052700
     51 H6          -1.4700     4.0460    -1.3900 h1         1 HZ2       0.023700
     52 H7          -1.1090     3.6590     0.2900 h1         1 HZ2       0.023700
     53 H8          -0.0970     1.8990    -1.9470 h1         1 HZ2       0.025200
     54 H9          -0.6670     0.3680    -1.2830 h1         1 HZ2       0.025200
     55 H10          0.7090     2.5740     0.3080 h1         1 HZ2       0.071700
     56 H11         -0.0260     1.1270     1.0210 h1         1 HZ2       0.071700
     57 H12          5.8530    -2.0470    -1.4460 h5         1 HZ2       0.058800
     58 H13          7.0370    -1.5680     2.1300 h2         1 HZ2       0.129700
     59 H14         10.2240    -0.5460     0.3930 h1         1 HZ2       0.083700
     60 H15          9.8720    -1.5890    -1.9360 h1         1 HZ2       0.017700
     61 H16          8.1420    -1.2620    -1.7520 h1         1 HZ2       0.017700
     62 H17          9.8830    -3.2020    -0.0610 h1         1 HZ2       0.046700
     63 H18          7.4970    -3.0570    -0.5100 h1         1 HZ2       0.042700
     64 H19          3.8840     1.5630     3.6160 h5         1 HZ2       0.046100
     65 H20         -2.5540     2.2000    -2.8530 h1         1 HZ2       0.048200
     66 H21         -3.8630     2.1410    -1.6790 h1         1 HZ2       0.048200
     67 H22         -2.2100    -0.2450    -2.5950 h1         1 HZ2       0.073700
     68 H23         -3.5600    -2.5760    -1.2820 h2         1 HZ2       0.115700
     69 H24         -5.4840    -1.9240    -3.3020 h1         1 HZ2       0.077700
     70 H25         -5.2080     0.4780    -2.9350 h1         1 HZ2       0.061700
     71 H26         -6.9260    -0.8010    -1.6950 h5         1 HZ2       0.110800
     72 H27         -4.1660    -4.5400     2.8860 h5         1 HZ2       0.032100
     73 H28         -2.8110     5.2730     2.4750 hn         1 HZ2       0.377000
     74 H29         -1.4320     5.0490     1.6580 hn         1 HZ2       0.377000
     75 H32          1.7840     0.2620    -1.0410 hn         1 HZ2       0.508000
     76 H33         -8.9930    -2.5900     2.2800 hn         1 HZ2       0.505000
     77 H34         -8.4690    -3.5290     3.6360 hn         1 HZ2       0.505000
     78 H35          9.2300     0.4530    -2.8480 ho         1 HZ2       0.504000
     79 H36         10.7410    -2.4370     1.9700 ho         1 HZ2       0.504000
     80 H37         -4.2760     1.1410    -4.8140 ho         1 HZ2       0.509000
     81 N08          1.7030     0.7660    -0.1570 nu         1 HZ2      -0.909100
     82 H2          -3.3210    -1.6170    -4.5470 ho         1 HZ2       0.516000
@<TRIPOS>BOND
     1     1    15 1   
     2     1    47 1   
     3     2    21 1   
     4     2    82 1   
     5     3     4 1   
     6     3    28 1   
     7     3    29 1   
     8     3    48 1   
     9     4     5 1   
    10     4    49 1   
    11     4    50 1   
    12     5    30 1   
    13     5    51 1   
    14     5    52 1   
    15     6     7 1   
    16     6    30 1   
    17     6    53 1   
    18     6    54 1   
    19     7    55 1   
    20     7    56 1   
    21     7    81 1   
    22     8     9 ar  
    23     8    34 ar  
    24     8    81 1   
    25     9    16 ar  
    26     9    31 1   
    27    10    31 2   
    28    10    32 1   
    29    10    57 1   
    30    11    15 1   
    31    11    32 1   
    32    11    40 1   
    33    11    58 1   
    34    12    13 1   
    35    12    14 1   
    36    12    40 1   
    37    12    59 1   
    38    13    41 1   
    39    13    60 1   
    40    13    61 1   
    41    14    15 1   
    42    14    42 1   
    43    14    62 1   
    44    15    63 1   
    45    16    32 1   
    46    16    33 ar  
    47    17    33 ar  
    48    17    34 ar  
    49    17    64 1   
    50    18    19 1   
    51    18    30 1   
    52    18    65 1   
    53    18    66 1   
    54    19    22 1   
    55    19    43 1   
    56    19    67 1   
    57    20    21 1   
    58    20    35 1   
    59    20    43 1   
    60    20    68 1   
    61    21    22 1   
    62    21    69 1   
    63    22    44 1   
    64    22    70 1   
    65    23    35 1   
    66    23    36 2   
    67    23    71 1   
    68    24    25 ar  
    69    24    27 ar  
    70    24    36 1   
    71    25    37 1   
    72    25    38 ar  
    73    26    38 ar  
    74    26    39 ar  
    75    26    72 1   
    76    27    35 1   
    77    27    39 ar  
    78    28    45 1   
    79    28    46 1   
    80    29    73 1   
    81    29    74 1   
    82    37    76 1   
    83    37    77 1   
    84    41    78 1   
    85    42    79 1   
    86    44    80 1   
    87    75    81 1   
@<TRIPOS>SUBSTRUCTURE
     1 HZ2         1 TEMP              0 ****  ****    0 ROOT
