@<TRIPOS>MOLECULE
HZ2
   82    87     1     0     0
SMALL
abcg2


@<TRIPOS>ATOM
      1 O22          7.9810    -2.8410     0.9890 oh         1 HZ2      -0.666000
      2 O32         -3.6420    -3.6070    -0.8190 oh         1 HZ2      -0.705000
      3 C02         -3.4150     4.2210     0.9100 c3         1 HZ2       0.015500
      4 C03         -2.8600     2.7950     0.8340 c3         1 HZ2      -0.101400
      5 C04         -1.7420     2.6160    -0.1850 c3         1 HZ2       0.170800
      6 C06         -0.1500     0.9190    -0.8970 c3         1 HZ2       0.159800
      7 C07          0.8440     0.9020     0.2560 c3         1 HZ2       0.224800
      8 C09          3.2500     0.4420     0.4730 ca         1 HZ2       0.449900
      9 C10          4.5210     0.2280    -0.0970 ca         1 HZ2      -0.107600
     10 C12          6.2380    -0.0400    -1.2940 cc         1 HZ2       0.396700
     11 C14          7.9980    -0.5170     0.4390 c5         1 HZ2       0.315300
     12 C16         10.0490    -0.3440    -0.6520 c5         1 HZ2       0.129300
     13 C17         10.0710    -0.3780    -2.1670 c3         1 HZ2       0.148600
     14 C19          9.9670    -1.7380    -0.0250 c5         1 HZ2       0.098300
     15 C21          8.4530    -1.9260     0.0540 c5         1 HZ2       0.135300
     16 C23          5.5570    -0.0290     0.7850 ca         1 HZ2       0.144500
     17 C25          4.2340     0.1370     2.5290 ca         1 HZ2       0.184900
     18 C27         -2.4910     0.6310    -1.3410 c3         1 HZ2       0.173800
     19 C28         -2.8650    -0.7850    -0.9600 c5         1 HZ2       0.167300
     20 C30         -4.7000    -1.7180     0.1340 c5         1 HZ2       0.323300
     21 C31         -4.4680    -2.5230    -1.1450 c5         1 HZ2       0.098300
     22 C33         -3.7200    -1.4980    -2.0010 c5         1 HZ2       0.082300
     23 C36         -6.2250     0.3390     0.0580 cc         1 HZ2       0.448700
     24 C38         -8.1230    -0.5860     0.1010 ca         1 HZ2      -0.088600
     25 C39         -9.4780    -0.9630     0.1300 ca         1 HZ2       0.445900
     26 C42         -8.7670    -3.1510     0.2120 ca         1 HZ2       0.162900
     27 C44         -7.1980    -1.6170     0.1290 ca         1 HZ2       0.098500
     28 C45         -4.7100     4.1910     1.7540 c          1 HZ2       0.722000
     29 N01         -2.4790     5.2140     1.4130 n8         1 HZ2      -0.990200
     30 N05         -1.4970     1.2050    -0.4490 n3         1 HZ2      -0.726600
     31 N11          4.9680     0.2200    -1.3920 nd         1 HZ2      -0.553100
     32 N13          6.6600    -0.2040    -0.0020 na         1 HZ2      -0.292300
     33 N24          5.4670    -0.0860     2.1130 nb         1 HZ2      -0.227000
     34 N26          3.1450     0.3900     1.8040 nb         1 HZ2      -0.288000
     35 N35         -5.9780    -1.0080     0.0880 na         1 HZ2      -0.320300
     36 N37         -7.4940     0.6290     0.0580 nd         1 HZ2      -0.528100
     37 N40        -10.4740    -0.0760     0.1040 nv         1 HZ2      -1.070900
     38 N41         -9.7640    -2.2690     0.1850 nb         1 HZ2      -0.319000
     39 N43         -7.4660    -2.9210     0.1880 nb         1 HZ2      -0.227000
     40 O15          8.9010     0.3610    -0.1680 os         1 HZ2      -0.428000
     41 O18         10.0780     0.9440    -2.6430 oh         1 HZ2      -0.696000
     42 O20         10.4710    -1.7650     1.2840 oh         1 HZ2      -0.683000
     43 O29         -3.6580    -0.7970     0.2300 os         1 HZ2      -0.415000
     44 O34         -2.9020    -2.0690    -2.9840 oh         1 HZ2      -0.713000
     45 O46         -4.6680     4.6950     2.8940 o          1 HZ2      -0.727000
     46 O47         -5.6880     3.6220     1.2270 o          1 HZ2      -0.727000
     47 H1           8.1360    -3.7310     0.6560 ho         1 HZ2       0.508000
     48 H3          -3.7030     4.5090    -0.1090 h1         1 HZ2       0.038700
     49 H4          -2.5050     2.4770     1.8200 hc         1 HZ2       0.052700
     50 H5          -3.6790     2.1230     0.5740 hc         1 HZ2       0.052700
     51 H6          -1.9890     3.1580    -1.1130 h1         1 HZ2       0.023700
     52 H7          -0.8210     3.0670     0.1910 h1         1 HZ2       0.023700
     53 H8           0.1850     1.6260    -1.6740 h1         1 HZ2       0.025200
     54 H9          -0.1370    -0.0710    -1.3610 h1         1 HZ2       0.025200
     55 H10          0.8090     1.8380     0.8220 h1         1 HZ2       0.071700
     56 H11          0.5810     0.1010     0.9500 h1         1 HZ2       0.071700
     57 H12          6.9200    -0.1120    -2.1270 h5         1 HZ2       0.058800
     58 H13          7.9940    -0.4040     1.5290 h2         1 HZ2       0.129700
     59 H14         10.9410     0.1860    -0.3030 h1         1 HZ2       0.083700
     60 H15         10.9700    -0.9300    -2.4730 h1         1 HZ2       0.017700
     61 H16          9.2100    -0.9410    -2.5530 h1         1 HZ2       0.017700
     62 H17         10.4460    -2.4940    -0.6600 h1         1 HZ2       0.046700
     63 H18          8.0860    -2.1560    -0.9550 h1         1 HZ2       0.042700
     64 H19          4.0810     0.1110     3.6030 h5         1 HZ2       0.046100
     65 H20         -2.1420     0.6260    -2.3850 h1         1 HZ2       0.048200
     66 H21         -3.3950     1.2450    -1.3390 h1         1 HZ2       0.048200
     67 H22         -1.9540    -1.3700    -0.7830 h1         1 HZ2       0.073700
     68 H23         -4.7220    -2.3660     1.0150 h2         1 HZ2       0.115700
     69 H24         -5.4070    -2.8530    -1.6040 h1         1 HZ2       0.077700
     70 H25         -4.4410    -0.7950    -2.4380 h1         1 HZ2       0.061700
     71 H26         -5.4380     1.0750     0.0510 h5         1 HZ2       0.110800
     72 H27         -9.0680    -4.1920     0.2610 h5         1 HZ2       0.032100
     73 H28         -2.4190     5.1140     2.4190 hn         1 HZ2       0.377000
     74 H29         -1.5490     5.0470     1.0480 hn         1 HZ2       0.377000
     75 H32          2.3060     0.7440    -1.2700 hn         1 HZ2       0.508000
     76 H33        -10.2890     0.9110     0.0760 hn         1 HZ2       0.505000
     77 H34        -11.4310    -0.3830     0.1320 hn         1 HZ2       0.505000
     78 H35         10.0680     0.9170    -3.6030 ho         1 HZ2       0.504000
     79 H36         11.4200    -1.6060     1.2470 ho         1 HZ2       0.504000
     80 H37         -3.4380    -2.2590    -3.7600 ho         1 HZ2       0.509000
     81 N08          2.1720     0.6850    -0.2730 nu         1 HZ2      -0.909100
     82 H2          -3.0990    -3.8080    -1.5910 ho         1 HZ2       0.516000
@<TRIPOS>BOND
     1     1    15 1   
     2     1    47 1   
     3     2    21 1   
     4     2    82 1   
     5     3     4 1   
     6     3    28 1   
     7     3    29 1   
     8     3    48 1   
     9     4     5 1   
    10     4    49 1   
    11     4    50 1   
    12     5    30 1   
    13     5    51 1   
    14     5    52 1   
    15     6     7 1   
    16     6    30 1   
    17     6    53 1   
    18     6    54 1   
    19     7    55 1   
    20     7    56 1   
    21     7    81 1   
    22     8     9 ar  
    23     8    34 ar  
    24     8    81 1   
    25     9    16 ar  
    26     9    31 1   
    27    10    31 2   
    28    10    32 1   
    29    10    57 1   
    30    11    15 1   
    31    11    32 1   
    32    11    40 1   
    33    11    58 1   
    34    12    13 1   
    35    12    14 1   
    36    12    40 1   
    37    12    59 1   
    38    13    41 1   
    39    13    60 1   
    40    13    61 1   
    41    14    15 1   
    42    14    42 1   
    43    14    62 1   
    44    15    63 1   
    45    16    32 1   
    46    16    33 ar  
    47    17    33 ar  
    48    17    34 ar  
    49    17    64 1   
    50    18    19 1   
    51    18    30 1   
    52    18    65 1   
    53    18    66 1   
    54    19    22 1   
    55    19    43 1   
    56    19    67 1   
    57    20    21 1   
    58    20    35 1   
    59    20    43 1   
    60    20    68 1   
    61    21    22 1   
    62    21    69 1   
    63    22    44 1   
    64    22    70 1   
    65    23    35 1   
    66    23    36 2   
    67    23    71 1   
    68    24    25 ar  
    69    24    27 ar  
    70    24    36 1   
    71    25    37 1   
    72    25    38 ar  
    73    26    38 ar  
    74    26    39 ar  
    75    26    72 1   
    76    27    35 1   
    77    27    39 ar  
    78    28    45 1   
    79    28    46 1   
    80    29    73 1   
    81    29    74 1   
    82    37    76 1   
    83    37    77 1   
    84    41    78 1   
    85    42    79 1   
    86    44    80 1   
    87    75    81 1   
@<TRIPOS>SUBSTRUCTURE
     1 HZ2         1 TEMP              0 ****  ****    0 ROOT
