@<TRIPOS>MOLECULE
HZ3
   47    50     1     0     0
SMALL
No Charge or Current Charge


@<TRIPOS>ATOM
      1 CAK         -0.6890    -2.9320     0.4760 ca         1 HZ3      -0.051500
      2 CAG         -1.5940    -3.9310     0.8750 ca         1 HZ3      -0.180750
      3 CAV         -2.9510    -3.8280     0.5370 ca         1 HZ3       0.147600
      4 OAC         -3.8190    -4.8020     0.9290 oh         1 HZ3      -0.530600
      5 CAH         -3.4080    -2.7260    -0.2020 ca         1 HZ3      -0.180750
      6 CAL         -2.5050    -1.7250    -0.6020 ca         1 HZ3      -0.051500
      7 CAX         -1.1410    -1.8190    -0.2600 ca         1 HZ3      -0.073800
      8 CAR         -0.1860    -0.7630    -0.6920 ce         1 HZ3      -0.070900
      9 CBB          1.1900    -1.0520    -1.3160 c5         1 HZ3       0.223700
     10 OAQ          1.2300    -0.0000    -2.2890 os         1 HZ3      -0.415000
     11 CAT          2.2400    -0.5070    -0.3450 ce         1 HZ3      -0.131900
     12 CAZ          3.1500    -1.4720     0.3530 c          1 HZ3       0.616800
     13 OAO          2.8830    -2.7750     0.0130 os         1 HZ3      -0.440100
     14 CAA          3.6780    -3.8120     0.6160 c3         1 HZ3       0.151900
     15 OAE          4.0300    -1.1440     1.1350 o          1 HZ3      -0.447000
     16 CAU          2.1240     0.8560    -0.3720 cf         1 HZ3      -0.131900
     17 CBA          2.8810     1.9390     0.3150 c          1 HZ3       0.616800
     18 OAP          2.4130     3.1770    -0.0450 os         1 HZ3      -0.440100
     19 CAB          3.0350     4.3350     0.5420 c3         1 HZ3       0.151900
     20 OAF          3.8000     1.7560     1.1010 o          1 HZ3      -0.447000
     21 CBC          0.9900     1.0800    -1.3860 c5         1 HZ3       0.223700
     22 CAS         -0.3270     0.6020    -0.7310 cf         1 HZ3      -0.070900
     23 CAY         -1.3870     1.5110    -0.2460 ca         1 HZ3      -0.073800
     24 CAM         -1.6030     2.7630    -0.8610 ca         1 HZ3      -0.051500
     25 CAI         -2.6070     3.6270    -0.3870 ca         1 HZ3      -0.180750
     26 CAW         -3.3980     3.2510     0.7090 ca         1 HZ3       0.147600
     27 OAD         -4.3710     4.0830     1.1740 oh         1 HZ3      -0.530600
     28 CAJ         -3.1840     2.0150     1.3330 ca         1 HZ3      -0.180750
     29 CAN         -2.1830     1.1490     0.8610 ca         1 HZ3      -0.051500
     30 HAK          0.3590    -3.0190     0.7490 ha         1 HZ3       0.120750
     31 HAG         -1.2410    -4.7850     1.4470 ha         1 HZ3       0.123000
     32 HOAC        -4.7150    -4.5660     0.6070 ho         1 HZ3       0.466500
     33 HAH         -4.4580    -2.6380    -0.4720 ha         1 HZ3       0.123000
     34 HAL         -2.8630    -0.8780    -1.1820 ha         1 HZ3       0.120750
     35 HBB          1.3460    -2.0440    -1.7650 h1         1 HZ3       0.118700
     36 HAA1         3.3560    -4.7970     0.2560 h1         1 HZ3       0.051200
     37 HAA2         4.7400    -3.6880     0.3650 h1         1 HZ3       0.051200
     38 HAA3         3.5750    -3.7990     1.7090 h1         1 HZ3       0.051200
     39 HAB1         2.5630     5.2520     0.1680 h1         1 HZ3       0.051200
     40 HAB2         2.9330     4.3220     1.6350 h1         1 HZ3       0.051200
     41 HAB3         4.1030     4.3750     0.2920 h1         1 HZ3       0.051200
     42 HBC          0.9750     2.0510    -1.9000 h1         1 HZ3       0.118700
     43 HAM         -1.0080     3.0680    -1.7180 ha         1 HZ3       0.120750
     44 HAI         -2.7630     4.5840    -0.8780 ha         1 HZ3       0.123000
     45 HOAD        -4.3750     4.8940     0.6220 ho         1 HZ3       0.466500
     46 HAJ         -3.7920     1.7260     2.1870 ha         1 HZ3       0.123000
     47 HAN         -2.0170     0.2030     1.3690 ha         1 HZ3       0.120750
@<TRIPOS>BOND
     1     1     2 ar  
     2     1     7 ar  
     3     1    30 1   
     4     2     3 ar  
     5     2    31 1   
     6     3     4 1   
     7     3     5 ar  
     8     4    32 1   
     9     5     6 ar  
    10     5    33 1   
    11     6     7 ar  
    12     6    34 1   
    13     7     8 1   
    14     8     9 1   
    15     8    22 2   
    16     9    10 1   
    17     9    11 1   
    18     9    35 1   
    19    10    21 1   
    20    11    12 1   
    21    11    16 2   
    22    12    13 1   
    23    12    15 2   
    24    13    14 1   
    25    14    36 1   
    26    14    37 1   
    27    14    38 1   
    28    16    17 1   
    29    16    21 1   
    30    17    18 1   
    31    17    20 2   
    32    18    19 1   
    33    19    39 1   
    34    19    40 1   
    35    19    41 1   
    36    21    22 1   
    37    21    42 1   
    38    22    23 1   
    39    23    24 ar  
    40    23    29 ar  
    41    24    25 ar  
    42    24    43 1   
    43    25    26 ar  
    44    25    44 1   
    45    26    27 1   
    46    26    28 ar  
    47    27    45 1   
    48    28    29 ar  
    49    28    46 1   
    50    29    47 1   
@<TRIPOS>SUBSTRUCTURE
     1 HZ3         1 TEMP              0 ****  ****    0 ROOT
