@<TRIPOS>MOLECULE
HZ3
   47    50     1     0     0
SMALL
bcc


@<TRIPOS>ATOM
      1 CAK         -0.6730    -3.0090     0.1360 ca         1 HZ3      -0.069500
      2 CAG         -1.5360    -3.9790     0.6160 ca         1 HZ3      -0.198750
      3 CAV         -2.9120    -3.7650     0.5820 ca         1 HZ3       0.147600
      4 OAC         -3.7140    -4.7360     1.0540 oh         1 HZ3      -0.491600
      5 CAH         -3.4030    -2.5700     0.0570 ca         1 HZ3      -0.198750
      6 CAL         -2.5300    -1.6070    -0.4130 ca         1 HZ3      -0.069500
      7 CAX         -1.1450    -1.7960    -0.3750 ca         1 HZ3      -0.073800
      8 CAR         -0.2270    -0.7920    -0.8880 ce         1 HZ3      -0.070900
      9 CBB          1.1520    -1.1330    -1.4990 c5         1 HZ3       0.200500
     10 OAQ          1.2330    -0.1530    -2.5190 os         1 HZ3      -0.368600
     11 CAT          2.2220    -0.6000    -0.5290 ce         1 HZ3      -0.131900
     12 CAZ          3.0420    -1.3920     0.3980 c          1 HZ3       0.665800
     13 OAO          2.9570    -2.6830     0.1140 os         1 HZ3      -0.416900
     14 CAA          3.6960    -3.5910     0.9330 c3         1 HZ3       0.128700
     15 OAE          3.6970    -0.9370     1.3010 o          1 HZ3      -0.496000
     16 CAU          2.1230     0.7250    -0.6340 cf         1 HZ3      -0.131900
     17 CBA          2.8000     1.8180     0.0870 c          1 HZ3       0.665800
     18 OAP          1.9100     2.7350     0.4230 os         1 HZ3      -0.416900
     19 CAB          2.3770     3.8930     1.1190 c3         1 HZ3       0.128700
     20 OAF          3.9810     1.8840     0.3070 o          1 HZ3      -0.496000
     21 CBC          1.0080     0.9520    -1.6690 c5         1 HZ3       0.200500
     22 CAS         -0.3000     0.5450    -0.9690 cf         1 HZ3      -0.070900
     23 CAY         -1.2430     1.5190    -0.4330 ca         1 HZ3      -0.073800
     24 CAM         -1.5880     2.6550    -1.1650 ca         1 HZ3      -0.069500
     25 CAI         -2.4740     3.5960    -0.6650 ca         1 HZ3      -0.198750
     26 CAW         -3.0290     3.4250     0.6000 ca         1 HZ3       0.147600
     27 OAD         -3.8940     4.3040     1.1410 oh         1 HZ3      -0.491600
     28 CAJ         -2.6820     2.3040     1.3530 ca         1 HZ3      -0.198750
     29 CAN         -1.8010     1.3720     0.8390 ca         1 HZ3      -0.069500
     30 HAK          0.3900    -3.2080     0.1760 ha         1 HZ3       0.138750
     31 HAG         -1.1440    -4.9060     1.0150 ha         1 HZ3       0.141000
     32 HOAC        -4.6390    -4.4810     0.9690 ho         1 HZ3       0.427500
     33 HAH         -4.4710    -2.3930     0.0060 ha         1 HZ3       0.141000
     34 HAL         -2.9370    -0.6960    -0.8320 ha         1 HZ3       0.138750
     35 HBB          1.2850    -2.1410    -1.8840 h1         1 HZ3       0.118700
     36 HAA1         3.4580    -4.5840     0.5640 h1         1 HZ3       0.051200
     37 HAA2         4.7680    -3.4170     0.8420 h1         1 HZ3       0.051200
     38 HAA3         3.4030    -3.5110     1.9780 h1         1 HZ3       0.051200
     39 HAB1         1.4960     4.4970     1.3110 h1         1 HZ3       0.051200
     40 HAB2         2.8460     3.6230     2.0640 h1         1 HZ3       0.051200
     41 HAB3         3.0830     4.4590     0.5120 h1         1 HZ3       0.051200
     42 HBC          1.0220     1.9020    -2.1990 h1         1 HZ3       0.118700
     43 HAM         -1.1750     2.8120    -2.1540 ha         1 HZ3       0.138750
     44 HAI         -2.7310     4.4620    -1.2650 ha         1 HZ3       0.141000
     45 HOAD        -4.0610     5.0290     0.5290 ho         1 HZ3       0.427500
     46 HAJ         -3.0960     2.1720     2.3450 ha         1 HZ3       0.141000
     47 HAN         -1.5340     0.5170     1.4460 ha         1 HZ3       0.138750
@<TRIPOS>BOND
     1     1     2 ar  
     2     1     7 ar  
     3     1    30 1   
     4     2     3 ar  
     5     2    31 1   
     6     3     4 1   
     7     3     5 ar  
     8     4    32 1   
     9     5     6 ar  
    10     5    33 1   
    11     6     7 ar  
    12     6    34 1   
    13     7     8 1   
    14     8     9 1   
    15     8    22 2   
    16     9    10 1   
    17     9    11 1   
    18     9    35 1   
    19    10    21 1   
    20    11    12 1   
    21    11    16 2   
    22    12    13 1   
    23    12    15 2   
    24    13    14 1   
    25    14    36 1   
    26    14    37 1   
    27    14    38 1   
    28    16    17 1   
    29    16    21 1   
    30    17    18 1   
    31    17    20 2   
    32    18    19 1   
    33    19    39 1   
    34    19    40 1   
    35    19    41 1   
    36    21    22 1   
    37    21    42 1   
    38    22    23 1   
    39    23    24 ar  
    40    23    29 ar  
    41    24    25 ar  
    42    24    43 1   
    43    25    26 ar  
    44    25    44 1   
    45    26    27 1   
    46    26    28 ar  
    47    27    45 1   
    48    28    29 ar  
    49    28    46 1   
    50    29    47 1   
@<TRIPOS>SUBSTRUCTURE
     1 HZ3         1 TEMP              0 ****  ****    0 ROOT
