@<TRIPOS>MOLECULE
HZ4
   55    56     1     0     0
SMALL
No Charge or Current Charge


@<TRIPOS>ATOM
      1 C01          4.8860     0.4090     1.7290 ca         1 HZ4      -0.098000
      2 C02          5.5630     1.6400     1.7880 ca         1 HZ4      -0.094000
      3 C03          6.5260     1.9630     0.8170 ca         1 HZ4       0.117000
      4 C04          6.8110     1.0500    -0.2190 ca         1 HZ4       0.119000
      5 C05          6.1320    -0.1800    -0.2760 ca         1 HZ4      -0.096000
      6 C06          5.1680    -0.5080     0.6980 ca         1 HZ4      -0.072300
      7 C07          4.4300    -1.8380     0.6280 c3         1 HZ4      -0.036100
      8 C08          3.1900    -1.7590    -0.2910 c3         1 HZ4       0.173800
      9 N09          2.2790    -2.9430    -0.2380 n3         1 HZ4      -0.761600
     10 C10          2.9300    -4.1840    -0.7490 c3         1 HZ4       0.176800
     11 C11          2.1460    -5.4850    -0.4870 c3         1 HZ4      -0.095100
     12 C12          0.9580    -2.6640    -0.8970 c3         1 HZ4       0.130800
     13 C13          0.0940    -1.6380    -0.1170 c3         1 HZ4       0.169300
     14 C14         -1.4160    -1.7390    -0.4570 c3         1 HZ4       0.159600
     15 O15         -2.1160    -0.6640     0.2030 os         1 HZ4      -0.325100
     16 C16         -3.4790    -0.4920     0.0830 ca         1 HZ4       0.156100
     17 C17         -4.2920    -1.3490    -0.6880 ca         1 HZ4      -0.166000
     18 C18         -5.6780    -1.1180    -0.7700 ca         1 HZ4      -0.066500
     19 C19         -6.2720    -0.0360    -0.0940 ca         1 HZ4       0.186000
     20 C20         -5.4530     0.8130     0.6810 ca         1 HZ4      -0.066500
     21 C21         -4.0670     0.5840     0.7640 ca         1 HZ4      -0.166000
     22 N22         -7.6560     0.1450    -0.2120 nu         1 HZ4      -0.869100
     23 S23         -8.5930     1.4940     0.0570 s6         1 HZ4       1.186100
     24 C24         -7.8890     2.7580    -0.9830 c3         1 HZ4      -0.384100
     25 O25         -9.9170     1.1420    -0.4580 o          1 HZ4      -0.527000
     26 O26         -8.4140     1.8590     1.4640 o          1 HZ4      -0.527000
     27 O27          0.3520    -1.8970     1.2690 oh         1 HZ4      -0.651000
     28 Cl1          8.0110     1.4220    -1.4570 cl         1 HZ4      -0.173000
     29 Cl2          7.3580     3.5160     0.9190 cl         1 HZ4      -0.171000
     30 H1           4.1400     0.1700     2.4850 ha         1 HZ4       0.124000
     31 H2           5.3420     2.3440     2.5870 ha         1 HZ4       0.134000
     32 H3           6.3560    -0.8780    -1.0790 ha         1 HZ4       0.129000
     33 H4           5.1140    -2.6150     0.2680 hc         1 HZ4       0.059700
     34 H5           4.1100    -2.1470     1.6300 hc         1 HZ4       0.059700
     35 H6           2.6430    -0.8550     0.0070 h1         1 HZ4       0.040200
     36 H7           3.5280    -1.5910    -1.3230 h1         1 HZ4       0.040200
     37 H9           3.1190    -4.0950    -1.8280 h1         1 HZ4       0.034200
     38 H10          3.9050    -4.3190    -0.2660 h1         1 HZ4       0.034200
     39 H11          1.2480    -5.5500    -1.1110 hc         1 HZ4       0.041367
     40 H12          2.7730    -6.3530    -0.7230 hc         1 HZ4       0.041367
     41 H13          1.8510    -5.5530     0.5660 hc         1 HZ4       0.041367
     42 H14          1.1050    -2.3050    -1.9260 h1         1 HZ4       0.045700
     43 H15          0.3640    -3.5830    -0.9670 h1         1 HZ4       0.045700
     44 H16          0.4410    -0.6300    -0.3780 h1         1 HZ4       0.045700
     45 H17         -1.5430    -1.6640    -1.5440 h1         1 HZ4       0.040200
     46 H18         -1.8010    -2.7140    -0.1290 h1         1 HZ4       0.040200
     47 H19         -3.8720    -2.1940    -1.2270 ha         1 HZ4       0.129000
     48 H20         -6.2930    -1.7870    -1.3670 ha         1 HZ4       0.126500
     49 H21         -5.8750     1.6490     1.2280 ha         1 HZ4       0.126500
     50 H22         -3.4450     1.2450     1.3630 ha         1 HZ4       0.129000
     51 H23         -8.1700    -0.4280    -0.8690 hn         1 HZ4       0.486000
     52 H24         -6.8590     2.9270    -0.6560 h1         1 HZ4       0.101367
     53 H25         -7.9240     2.3950    -2.0150 h1         1 HZ4       0.101367
     54 H26         -8.4960     3.6600    -0.8590 h1         1 HZ4       0.101367
     55 H27          1.2050    -2.4000     1.2080 ho         1 HZ4       0.469000
@<TRIPOS>BOND
     1     1     2 ar  
     2     1     6 ar  
     3     1    30 1   
     4     2     3 ar  
     5     2    31 1   
     6     3     4 ar  
     7     3    29 1   
     8     4     5 ar  
     9     4    28 1   
    10     5     6 ar  
    11     5    32 1   
    12     6     7 1   
    13     7     8 1   
    14     7    33 1   
    15     7    34 1   
    16     8     9 1   
    17     8    35 1   
    18     8    36 1   
    19     9    10 1   
    20     9    12 1   
    21    10    11 1   
    22    10    37 1   
    23    10    38 1   
    24    11    39 1   
    25    11    40 1   
    26    11    41 1   
    27    12    13 1   
    28    12    42 1   
    29    12    43 1   
    30    13    14 1   
    31    13    27 1   
    32    13    44 1   
    33    14    15 1   
    34    14    45 1   
    35    14    46 1   
    36    15    16 1   
    37    16    17 ar  
    38    16    21 ar  
    39    17    18 ar  
    40    17    47 1   
    41    18    19 ar  
    42    18    48 1   
    43    19    20 ar  
    44    19    22 1   
    45    20    21 ar  
    46    20    49 1   
    47    21    50 1   
    48    22    23 1   
    49    22    51 1   
    50    23    24 1   
    51    23    25 2   
    52    23    26 2   
    53    24    52 1   
    54    24    53 1   
    55    24    54 1   
    56    27    55 1   
@<TRIPOS>SUBSTRUCTURE
     1 HZ4         1 TEMP              0 ****  ****    0 ROOT
