@<TRIPOS>MOLECULE
HZ4
   55    56     1     0     0
SMALL
abcg2


@<TRIPOS>ATOM
      1 C01          4.5440     0.7470     1.4230 ca         1 HZ4      -0.098000
      2 C02          5.3600     1.8660     1.4140 ca         1 HZ4      -0.094000
      3 C03          6.5590     1.8440     0.7180 ca         1 HZ4       0.117000
      4 C04          6.9330     0.6930     0.0330 ca         1 HZ4       0.119000
      5 C05          6.1110    -0.4230     0.0470 ca         1 HZ4      -0.096000
      6 C06          4.9080    -0.4130     0.7440 ca         1 HZ4      -0.072300
      7 C07          4.0010    -1.6090     0.7180 c3         1 HZ4      -0.036100
      8 C08          3.0100    -1.5290    -0.4440 c3         1 HZ4       0.173800
      9 N09          2.1450    -2.6980    -0.4970 n3         1 HZ4      -0.761600
     10 C10          2.7680    -3.8260    -1.1800 c3         1 HZ4       0.176800
     11 C11          2.2250    -5.1670    -0.7190 c3         1 HZ4      -0.095100
     12 C12          0.8130    -2.3900    -0.9880 c3         1 HZ4       0.130800
     13 C13         -0.0270    -1.8180     0.1570 c3         1 HZ4       0.169300
     14 C14         -1.4800    -1.7450    -0.2500 c3         1 HZ4       0.159600
     15 O15         -2.1900    -1.0620     0.7670 os         1 HZ4      -0.325100
     16 C16         -3.4920    -0.7860     0.5790 ca         1 HZ4       0.156100
     17 C17         -4.2340    -1.1930    -0.5270 ca         1 HZ4      -0.166000
     18 C18         -5.5710    -0.8300    -0.6320 ca         1 HZ4      -0.066500
     19 C19         -6.1890    -0.0880     0.3630 ca         1 HZ4       0.186000
     20 C20         -5.4510     0.2930     1.4810 ca         1 HZ4      -0.066500
     21 C21         -4.1160    -0.0420     1.5830 ca         1 HZ4      -0.166000
     22 N22         -7.5610     0.2690     0.2700 nu         1 HZ4      -0.869100
     23 S23         -7.9620     1.8230    -0.1590 s6         1 HZ4       1.186100
     24 C24         -7.4390     2.0350    -1.8450 c3         1 HZ4      -0.384100
     25 O25         -9.4130     1.8920    -0.1080 o          1 HZ4      -0.527000
     26 O26         -7.1690     2.7130     0.6730 o          1 HZ4      -0.527000
     27 O27          0.1180    -2.6310     1.2940 oh         1 HZ4      -0.651000
     28 CL1          8.4200     0.6350    -0.8360 cl         1 HZ4      -0.173000
     29 CL2          7.5710     3.2390     0.7180 cl         1 HZ4      -0.171000
     30 H1           3.6130     0.7780     1.9760 ha         1 HZ4       0.124000
     31 H2           5.0680     2.7580     1.9510 ha         1 HZ4       0.134000
     32 H3           6.4200    -1.3120    -0.4880 ha         1 HZ4       0.129000
     33 H4           4.5970    -2.5220     0.6420 hc         1 HZ4       0.059700
     34 H5           3.4380    -1.6740     1.6520 hc         1 HZ4       0.059700
     35 H6           2.3960    -0.6350    -0.3110 h1         1 HZ4       0.040200
     36 H7           3.5500    -1.3870    -1.3920 h1         1 HZ4       0.040200
     37 H9           2.6700    -3.7290    -2.2710 h1         1 HZ4       0.034200
     38 H10          3.8380    -3.7990    -0.9710 h1         1 HZ4       0.034200
     39 H11          1.1600    -5.2770    -0.9210 hc         1 HZ4       0.041367
     40 H12          2.7390    -5.9780    -1.2340 hc         1 HZ4       0.041367
     41 H13          2.3790    -5.2940     0.3530 hc         1 HZ4       0.041367
     42 H14          0.8250    -1.6980    -1.8410 h1         1 HZ4       0.045700
     43 H15          0.3450    -3.3130    -1.3360 h1         1 HZ4       0.045700
     44 H16          0.3120    -0.7910     0.3680 h1         1 HZ4       0.045700
     45 H17         -1.5600    -1.2080    -1.2030 h1         1 HZ4       0.040200
     46 H18         -1.8820    -2.7550    -0.3960 h1         1 HZ4       0.040200
     47 H19         -3.7950    -1.7820    -1.3200 ha         1 HZ4       0.129000
     48 H20         -6.1330    -1.1450    -1.5040 ha         1 HZ4       0.126500
     49 H21         -5.9260     0.8490     2.2780 ha         1 HZ4       0.126500
     50 H22         -3.5450     0.2670     2.4500 ha         1 HZ4       0.129000
     51 H23         -8.1550    -0.4150    -0.1890 hn         1 HZ4       0.486000
     52 H24         -6.3680     1.8560    -1.9180 h1         1 HZ4       0.101367
     53 H25         -7.9840     1.3400    -2.4790 h1         1 HZ4       0.101367
     54 H26         -7.6600     3.0610    -2.1370 h1         1 HZ4       0.101367
     55 H27          1.0280    -2.9650     1.2280 ho         1 HZ4       0.469000
@<TRIPOS>BOND
     1     1     2 ar  
     2     1     6 ar  
     3     1    30 1   
     4     2     3 ar  
     5     2    31 1   
     6     3     4 ar  
     7     3    29 1   
     8     4     5 ar  
     9     4    28 1   
    10     5     6 ar  
    11     5    32 1   
    12     6     7 1   
    13     7     8 1   
    14     7    33 1   
    15     7    34 1   
    16     8     9 1   
    17     8    35 1   
    18     8    36 1   
    19     9    10 1   
    20     9    12 1   
    21    10    11 1   
    22    10    37 1   
    23    10    38 1   
    24    11    39 1   
    25    11    40 1   
    26    11    41 1   
    27    12    13 1   
    28    12    42 1   
    29    12    43 1   
    30    13    14 1   
    31    13    27 1   
    32    13    44 1   
    33    14    15 1   
    34    14    45 1   
    35    14    46 1   
    36    15    16 1   
    37    16    17 ar  
    38    16    21 ar  
    39    17    18 ar  
    40    17    47 1   
    41    18    19 ar  
    42    18    48 1   
    43    19    20 ar  
    44    19    22 1   
    45    20    21 ar  
    46    20    49 1   
    47    21    50 1   
    48    22    23 1   
    49    22    51 1   
    50    23    24 1   
    51    23    25 2   
    52    23    26 2   
    53    24    52 1   
    54    24    53 1   
    55    24    54 1   
    56    27    55 1   
@<TRIPOS>SUBSTRUCTURE
     1 HZ4         1 TEMP              0 ****  ****    0 ROOT
