@<TRIPOS>MOLECULE
HZ5
   26    26     1     0     0
SMALL
No Charge or Current Charge


@<TRIPOS>ATOM
      1 C12          7.7870    50.2560    65.3780 cc         1 HZ5      -0.171300
      2 C13          8.7450    49.5780    64.4290 c3         1 HZ5      -0.026800
      3 C14          7.0570    48.1880    66.6980 c3         1 HZ5       0.071900
      4 C16          5.8050    52.8910    67.0930 c3         1 HZ5      -0.117400
      5 O1           7.8230    53.6580    62.6640 os         1 HZ5      -0.439800
      6 S            6.9150    53.8760    64.0800 s4         1 HZ5       0.677700
      7 O            7.3350    55.1910    64.6890 o          1 HZ5      -0.532000
      8 N3           7.8860    52.5870    64.6860 nu         1 HZ5      -0.726900
      9 C11          7.4150    51.5640    65.4820 cd         1 HZ5       0.129000
     10 C15          6.4830    51.6570    66.5580 cd         1 HZ5       0.301300
     11 N5           6.2440    50.4820    67.1130 nc         1 HZ5      -0.521800
     12 N4           7.0450    49.6250    66.3800 na         1 HZ5       0.139800
     13 H1           9.3170    48.7920    64.9370 hc         1 HZ5       0.047367
     14 H2           8.2040    49.1170    63.5940 hc         1 HZ5       0.047367
     15 H3           9.4670    50.2900    64.0120 hc         1 HZ5       0.047367
     16 H4           6.2660    47.9540    67.4200 h1         1 HZ5       0.055700
     17 H5           6.8910    47.6100    65.7820 h1         1 HZ5       0.055700
     18 H6           8.0300    47.9190    67.1270 h1         1 HZ5       0.055700
     19 H7           5.3830    52.7170    68.0900 hc         1 HZ5       0.050367
     20 H8           6.5150    53.7220    67.1770 hc         1 HZ5       0.050367
     21 H9           4.9880    53.2040    66.4340 hc         1 HZ5       0.050367
     22 H12          8.4220    52.2790    63.8830 hn         1 HZ5       0.461000
     23 C1           9.1700    54.1880    62.6600 c3         1 HZ5       0.163900
     24 H10          9.7900    53.7610    63.4580 h1         1 HZ5       0.044700
     25 H11          9.6590    53.9640    61.7030 h1         1 HZ5       0.044700
     26 H13          9.1600    55.2790    62.7790 h1         1 HZ5       0.044700
@<TRIPOS>BOND
     1     1     2 1   
     2     1     9 2   
     3     1    12 1   
     4     2    13 1   
     5     2    14 1   
     6     2    15 1   
     7     3    12 1   
     8     3    16 1   
     9     3    17 1   
    10     3    18 1   
    11     4    10 1   
    12     4    19 1   
    13     4    20 1   
    14     4    21 1   
    15     5     6 1   
    16     5    23 1   
    17     6     7 2   
    18     6     8 1   
    19     8     9 1   
    20     8    22 1   
    21     9    10 1   
    22    10    11 2   
    23    11    12 1   
    24    23    24 1   
    25    23    25 1   
    26    23    26 1   
@<TRIPOS>SUBSTRUCTURE
     1 HZ5         1 TEMP              0 ****  ****    0 ROOT
