@<TRIPOS>MOLECULE
HZ5
   26    26     1     0     0
SMALL
abcg2


@<TRIPOS>ATOM
      1 C12          7.7170    49.9910    65.2030 cc         1 HZ5      -0.171300
      2 C13          8.1160    48.9430    64.2310 c3         1 HZ5      -0.026800
      3 C14          6.6960    48.4280    66.8510 c3         1 HZ5       0.071900
      4 C16          7.1870    53.2460    66.8340 c3         1 HZ5      -0.117400
      5 O1           8.2840    54.1160    62.6330 os         1 HZ5      -0.439800
      6 S            7.5390    52.6900    62.8840 s4         1 HZ5       0.677700
      7 O            6.2210    52.9190    63.4990 o          1 HZ5      -0.532000
      8 N3           8.5090    52.1440    64.1890 nu         1 HZ5      -0.726900
      9 C11          7.8840    51.3640    65.1750 cd         1 HZ5       0.129000
     10 C15          7.2950    51.8390    66.3640 cd         1 HZ5       0.301300
     11 N5           6.8120    50.8310    67.0640 nc         1 HZ5      -0.521800
     12 N4           7.0800    49.7270    66.3570 na         1 HZ5       0.139800
     13 H1           8.7560    48.1850    64.6870 hc         1 HZ5       0.047367
     14 H2           7.2460    48.4320    63.8150 hc         1 HZ5       0.047367
     15 H3           8.6660    49.3850    63.4020 hc         1 HZ5       0.047367
     16 H4           6.1800    48.5620    67.7970 h1         1 HZ5       0.055700
     17 H5           6.0260    47.9270    66.1530 h1         1 HZ5       0.055700
     18 H6           7.5700    47.7970    67.0130 h1         1 HZ5       0.055700
     19 H7           6.7220    53.2900    67.8170 hc         1 HZ5       0.050367
     20 H8           8.1690    53.7180    66.9020 hc         1 HZ5       0.050367
     21 H9           6.5890    53.8440    66.1460 hc         1 HZ5       0.050367
     22 H12          9.3890    51.7730    63.8450 hn         1 HZ5       0.461000
     23 C1           8.2790    55.1000    63.6740 c3         1 HZ5       0.163900
     24 H10          8.7810    54.7360    64.5690 h1         1 HZ5       0.044700
     25 H11          8.8240    55.9530    63.2780 h1         1 HZ5       0.044700
     26 H13          7.2650    55.4110    63.9250 h1         1 HZ5       0.044700
@<TRIPOS>BOND
     1     1     2 1   
     2     1     9 2   
     3     1    12 1   
     4     2    13 1   
     5     2    14 1   
     6     2    15 1   
     7     3    12 1   
     8     3    16 1   
     9     3    17 1   
    10     3    18 1   
    11     4    10 1   
    12     4    19 1   
    13     4    20 1   
    14     4    21 1   
    15     5     6 1   
    16     5    23 1   
    17     6     7 2   
    18     6     8 1   
    19     8     9 1   
    20     8    22 1   
    21     9    10 1   
    22    10    11 2   
    23    11    12 1   
    24    23    24 1   
    25    23    25 1   
    26    23    26 1   
@<TRIPOS>SUBSTRUCTURE
     1 HZ5         1 TEMP              0 ****  ****    0 ROOT
