@<TRIPOS>MOLECULE
HZ6
   45    47     1     0     0
SMALL
No Charge or Current Charge


@<TRIPOS>ATOM
      1 C16         50.3310    -4.4090    18.4400 c          1 HZ6       0.617100
      2 C17         49.5830    -5.6530    17.9420 c3         1 HZ6      -0.153400
      3 C22         54.5260     1.7020    23.0840 ca         1 HZ6       0.202900
      4 N23         54.5440     1.6450    21.7290 nb         1 HZ6      -0.317000
      5 C20         49.8800    -2.1830    18.6020 cy         1 HZ6       0.096000
      6 C18         49.7060    -6.8220    18.9430 c3         1 HZ6      -0.076100
      7 C13         50.0500    -1.7510    20.0940 cy         1 HZ6       0.138300
      8 C11         51.5520    -0.5930    21.6580 cc         1 HZ6       0.601200
      9 N15         49.4500    -3.5220    19.1400 nj         1 HZ6      -0.439800
     10 C14         50.2360    -3.2740    20.3990 cy         1 HZ6       0.096000
     11 C02         53.5900     0.8970    21.1600 ca         1 HZ6       0.472900
     12 C03         52.6590     0.2430    21.9420 ca         1 HZ6      -0.411900
     13 C04         52.6960     0.3410    23.3030 ca         1 HZ6       0.186500
     14 C07         50.9410     0.7470    25.8610 c3         1 HZ6      -0.100767
     15 C08         50.0340    -1.5460    25.3850 c3         1 HZ6      -0.100767
     16 C09         52.4630    -1.2820    25.9620 c3         1 HZ6      -0.100767
     17 N01         53.5940     0.8260    19.8150 nv         1 HZ6      -1.065900
     18 N05         51.6210    -0.4360    23.7610 na         1 HZ6      -0.021100
     19 N10         50.8840    -1.0280    22.7210 nd         1 HZ6      -0.608100
     20 N21         53.6450     1.0840    23.9100 nb         1 HZ6      -0.243000
     21 O19         51.5330    -4.3520    18.1890 o          1 HZ6      -0.595100
     22 H1          48.5150    -5.4260    17.8430 hc         1 HZ6       0.054200
     23 H2          49.9960    -5.9710    16.9770 hc         1 HZ6       0.054200
     24 H3          55.2970     2.3070    23.5590 h5         1 HZ6       0.044100
     25 H4          49.0800    -1.6510    18.0780 h1         1 HZ6       0.067450
     26 H5          50.8090    -2.1330    18.0210 h1         1 HZ6       0.067450
     27 H6          49.1590    -7.7000    18.5770 hc         1 HZ6       0.042367
     28 H7          50.7560    -7.1060    19.0830 hc         1 HZ6       0.042367
     29 H8          49.2910    -6.5420    19.9190 hc         1 HZ6       0.042367
     30 H9          49.1280    -1.3390    20.5220 h1         1 HZ6       0.081700
     31 H10         51.2850    -3.5940    20.4220 h1         1 HZ6       0.067450
     32 H11         49.7200    -3.6080    21.3060 h1         1 HZ6       0.067450
     33 H12         51.8060     1.4190    25.8590 hc         1 HZ6       0.049922
     34 H13         50.1260     1.2430    25.3200 hc         1 HZ6       0.049922
     35 H14         50.6270     0.6190    26.9040 hc         1 HZ6       0.049922
     36 H15         50.2180    -2.5390    24.9600 hc         1 HZ6       0.049922
     37 H16         49.7880    -1.6790    26.4460 hc         1 HZ6       0.049922
     38 H17         49.1520    -1.1190    24.8910 hc         1 HZ6       0.049922
     39 H18         52.7360    -2.2350    25.4930 hc         1 HZ6       0.049922
     40 H19         53.3500    -0.6400    25.9640 hc         1 HZ6       0.049922
     41 H20         52.2010    -1.4830    27.0080 hc         1 HZ6       0.049922
     42 H21         54.1260     1.5220    19.3010 hn         1 HZ6       0.506500
     43 H22         52.7730     0.4400    19.3570 hn         1 HZ6       0.506500
     44 O12         51.1650    -0.8960    20.3830 os         1 HZ6      -0.409600
     45 C06         51.2760    -0.6220    25.2110 c3         1 HZ6       0.138000
@<TRIPOS>BOND
     1     1     2 1   
     2     1     9 1   
     3     1    21 2   
     4     2     6 1   
     5     2    22 1   
     6     2    23 1   
     7     3     4 ar  
     8     3    20 ar  
     9     3    24 1   
    10     4    11 ar  
    11     5     7 1   
    12     5     9 1   
    13     5    25 1   
    14     5    26 1   
    15     6    27 1   
    16     6    28 1   
    17     6    29 1   
    18     7    10 1   
    19     7    30 1   
    20     7    44 1   
    21     8    12 1   
    22     8    19 2   
    23     8    44 1   
    24     9    10 1   
    25    10    31 1   
    26    10    32 1   
    27    11    12 ar  
    28    11    17 1   
    29    12    13 ar  
    30    13    18 1   
    31    13    20 ar  
    32    14    33 1   
    33    14    34 1   
    34    14    35 1   
    35    14    45 1   
    36    15    36 1   
    37    15    37 1   
    38    15    38 1   
    39    15    45 1   
    40    16    39 1   
    41    16    40 1   
    42    16    41 1   
    43    16    45 1   
    44    17    42 1   
    45    17    43 1   
    46    18    19 1   
    47    18    45 1   
@<TRIPOS>SUBSTRUCTURE
     1 HZ6         1 TEMP              0 ****  ****    0 ROOT
