@<TRIPOS>MOLECULE
HZ6
   45    47     1     0     0
SMALL
abcg2


@<TRIPOS>ATOM
      1 C16         50.0550    -5.1950    19.4010 c          1 HZ6       0.617100
      2 C17         49.7040    -5.3640    17.9390 c3         1 HZ6      -0.153400
      3 C22         54.3990     1.7940    22.8710 ca         1 HZ6       0.202900
      4 N23         54.3960     1.6970    21.5430 nb         1 HZ6      -0.317000
      5 C20         49.6270    -2.6660    19.2460 cy         1 HZ6       0.096000
      6 C18         49.8380    -6.7930    17.4410 c3         1 HZ6      -0.076100
      7 C13         49.9000    -2.0030    20.6050 cy         1 HZ6       0.138300
      8 C11         51.4320    -0.6040    21.6690 cc         1 HZ6       0.601200
      9 N15         49.9520    -3.9420    19.8610 nj         1 HZ6      -0.439800
     10 C14         50.2720    -3.3920    21.1660 cy         1 HZ6       0.096000
     11 C02         53.4640     0.9350    20.9630 ca         1 HZ6       0.472900
     12 C03         52.5310     0.2750    21.7880 ca         1 HZ6      -0.411900
     13 C04         52.6520     0.4710    23.1680 ca         1 HZ6       0.186500
     14 C07         51.1880     0.9680    25.8310 c3         1 HZ6      -0.100767
     15 C08         50.1630    -1.2560    25.3990 c3         1 HZ6      -0.100767
     16 C09         52.6100    -1.1080    25.8490 c3         1 HZ6      -0.100767
     17 N01         53.4610     0.8310    19.6360 nv         1 HZ6      -1.065900
     18 N05         51.6760    -0.2430    23.7610 na         1 HZ6      -0.021100
     19 N10         50.9390    -0.9070    22.8340 nd         1 HZ6      -0.608100
     20 N21         53.5900     1.2340    23.7470 nb         1 HZ6      -0.243000
     21 O19         50.4080    -6.1140    20.1290 o          1 HZ6      -0.595100
     22 H1          48.6840    -5.0010    17.7810 hc         1 HZ6       0.054200
     23 H2          50.3410    -4.6970    17.3490 hc         1 HZ6       0.054200
     24 H3          55.1800     2.4240    23.2850 h5         1 HZ6       0.044100
     25 H4          48.6000    -2.5840    18.8880 h1         1 HZ6       0.067450
     26 H5          50.3100    -2.3610    18.4500 h1         1 HZ6       0.067450
     27 H6          49.5770    -6.8460    16.3850 hc         1 HZ6       0.042367
     28 H7          50.8580    -7.1620    17.5490 hc         1 HZ6       0.042367
     29 H8          49.1780    -7.4710    17.9800 hc         1 HZ6       0.042367
     30 H9          49.0270    -1.5480    21.0770 h1         1 HZ6       0.081700
     31 H10         51.3200    -3.5090    21.4520 h1         1 HZ6       0.067450
     32 H11         49.6380    -3.7490    21.9780 h1         1 HZ6       0.067450
     33 H12         52.0660     1.6040    25.7410 hc         1 HZ6       0.049922
     34 H13         50.3420     1.4740    25.3640 hc         1 HZ6       0.049922
     35 H14         50.9640     0.8490    26.8920 hc         1 HZ6       0.049922
     36 H15         50.2780    -2.2630    24.9990 hc         1 HZ6       0.049922
     37 H16         49.9780    -1.3410    26.4700 hc         1 HZ6       0.049922
     38 H17         49.2850    -0.8000    24.9420 hc         1 HZ6       0.049922
     39 H18         52.7800    -2.0840    25.3930 hc         1 HZ6       0.049922
     40 H19         53.5220    -0.5190    25.7540 hc         1 HZ6       0.049922
     41 H20         52.4190    -1.2610    26.9120 hc         1 HZ6       0.049922
     42 H21         54.1440     1.3320    19.0930 hn         1 HZ6       0.506500
     43 H22         52.7770     0.2810    19.1470 hn         1 HZ6       0.506500
     44 O12         50.9580    -1.0750    20.5150 os         1 HZ6      -0.409600
     45 C06         51.4140    -0.4080    25.2040 c3         1 HZ6       0.138000
@<TRIPOS>BOND
     1     1     2 1   
     2     1     9 1   
     3     1    21 2   
     4     2     6 1   
     5     2    22 1   
     6     2    23 1   
     7     3     4 ar  
     8     3    20 ar  
     9     3    24 1   
    10     4    11 ar  
    11     5     7 1   
    12     5     9 1   
    13     5    25 1   
    14     5    26 1   
    15     6    27 1   
    16     6    28 1   
    17     6    29 1   
    18     7    10 1   
    19     7    30 1   
    20     7    44 1   
    21     8    12 1   
    22     8    19 2   
    23     8    44 1   
    24     9    10 1   
    25    10    31 1   
    26    10    32 1   
    27    11    12 ar  
    28    11    17 1   
    29    12    13 ar  
    30    13    18 1   
    31    13    20 ar  
    32    14    33 1   
    33    14    34 1   
    34    14    35 1   
    35    14    45 1   
    36    15    36 1   
    37    15    37 1   
    38    15    38 1   
    39    15    45 1   
    40    16    39 1   
    41    16    40 1   
    42    16    41 1   
    43    16    45 1   
    44    17    42 1   
    45    17    43 1   
    46    18    19 1   
    47    18    45 1   
@<TRIPOS>SUBSTRUCTURE
     1 HZ6         1 TEMP              0 ****  ****    0 ROOT
