@<TRIPOS>MOLECULE
HZ8
   50    52     1     0     0
SMALL
abcg2


@<TRIPOS>ATOM
      1 C21          2.7800    43.4730    58.2890 c3         1 HZ8       0.154100
      2 C22          2.7650    45.8650    58.3430 c6         1 HZ8       0.168800
      3 C23          2.3650    47.0970    59.1400 c6         1 HZ8      -0.090400
      4 C19          2.7800    45.7950    61.2270 c6         1 HZ8      -0.090400
      5 C1           6.7960    48.9150    59.0370 c3         1 HZ8       0.229800
      6 N1           4.6000    49.3230    60.4920 nb         1 HZ8      -0.349000
      7 C2           7.1160    51.3420    58.9030 c3         1 HZ8       0.215100
      8 C3           5.4000    50.3620    60.3930 ca         1 HZ8       0.446900
      9 C4           3.4750    49.4080    61.2240 ca         1 HZ8       0.441900
     10 C5           3.8910    51.5470    61.8510 ca         1 HZ8       0.100000
     11 C6           3.5260    52.6900    62.6000 ca         1 HZ8      -0.124000
     12 C7           4.3900    53.7450    62.7420 ca         1 HZ8      -0.071000
     13 C8           5.6640    53.7040    62.1540 ca         1 HZ8      -0.157000
     14 C9           6.0260    52.6240    61.3860 ca         1 HZ8      -0.052000
     15 C10          5.1380    51.5510    61.1760 ca         1 HZ8      -0.213000
     16 C            6.0350    48.5290    57.7780 c3         1 HZ8      -0.115100
     17 N2           3.0520    50.4910    61.8470 nb         1 HZ8      -0.295000
     18 N6           2.7210    48.2770    61.2920 nh         1 HZ8      -0.772300
     19 C18          3.0630    47.1040    60.4980 c6         1 HZ8       0.238500
     20 N7           2.4880    44.6470    59.0790 n3         1 HZ8      -0.719600
     21 C20          3.1890    44.6230    60.3480 c6         1 HZ8       0.168800
     22 H1           2.5140    42.5720    58.8450 h1         1 HZ8       0.029367
     23 H2           2.1930    43.4830    57.3700 h1         1 HZ8       0.029367
     24 H3           3.8420    43.3890    58.0070 h1         1 HZ8       0.029367
     25 H4           3.8370    45.9410    58.0760 h1         1 HZ8       0.030200
     26 H5           2.2120    45.8390    57.4010 h1         1 HZ8       0.030200
     27 H6           2.6370    47.9950    58.5800 hc         1 HZ8       0.053950
     28 H7           1.2790    47.1090    59.2700 hc         1 HZ8       0.053950
     29 H8           1.2360    49.2760    62.3520 h1         1 HZ8       0.045033
     30 H9           0.6270    48.0660    61.2230 h1         1 HZ8       0.045033
     31 H10          1.3730    47.5620    62.7420 h1         1 HZ8       0.045033
     32 H11          1.7180    45.6960    61.4680 hc         1 HZ8       0.053950
     33 H12          3.3360    45.7580    62.1670 hc         1 HZ8       0.053950
     34 H13          6.6280    48.1730    59.8150 h1         1 HZ8       0.053700
     35 H14          7.8700    48.9260    58.8350 h1         1 HZ8       0.053700
     36 H15          6.4770    52.2200    58.8590 h1         1 HZ8       0.042033
     37 H16          8.0610    51.6120    59.3770 h1         1 HZ8       0.042033
     38 H17          7.3350    51.0560    57.8740 h1         1 HZ8       0.042033
     39 H18          2.5580    52.6940    63.0840 ha         1 HZ8       0.129000
     40 H19          4.0980    54.6040    63.3320 ha         1 HZ8       0.112000
     41 H20          6.3640    54.5140    62.3100 ha         1 HZ8       0.112000
     42 H21          7.0220    52.6050    60.9700 ha         1 HZ8       0.108000
     43 H22          6.3920    47.5670    57.4090 hc         1 HZ8       0.042033
     44 H23          4.9690    48.4410    57.9830 hc         1 HZ8       0.042033
     45 H24          6.1740    49.2600    56.9800 hc         1 HZ8       0.042033
     46 H25          4.1360    47.1470    60.3150 h1         1 HZ8       0.081700
     47 H27          2.9540    43.6860    60.8580 h1         1 HZ8       0.030200
     48 H28          4.2860    44.6370    60.2040 h1         1 HZ8       0.030200
     49 C17          1.4250    48.2930    61.9340 c3         1 HZ8       0.209100
     50 N            6.4550    50.2320    59.5610 nh         1 HZ8      -0.786300
@<TRIPOS>BOND
     1     1    20 1   
     2     1    22 1   
     3     1    23 1   
     4     1    24 1   
     5     2     3 1   
     6     2    20 1   
     7     2    25 1   
     8     2    26 1   
     9     3    19 1   
    10     3    27 1   
    11     3    28 1   
    12     4    19 1   
    13     4    21 1   
    14     4    32 1   
    15     4    33 1   
    16     5    16 1   
    17     5    34 1   
    18     5    35 1   
    19     5    50 1   
    20     6     8 ar  
    21     6     9 ar  
    22     7    36 1   
    23     7    37 1   
    24     7    38 1   
    25     7    50 1   
    26     8    15 ar  
    27     8    50 1   
    28     9    17 ar  
    29     9    18 1   
    30    10    11 ar  
    31    10    15 ar  
    32    10    17 ar  
    33    11    12 ar  
    34    11    39 1   
    35    12    13 ar  
    36    12    40 1   
    37    13    14 ar  
    38    13    41 1   
    39    14    15 ar  
    40    14    42 1   
    41    16    43 1   
    42    16    44 1   
    43    16    45 1   
    44    18    19 1   
    45    18    49 1   
    46    19    46 1   
    47    20    21 1   
    48    21    47 1   
    49    21    48 1   
    50    29    49 1   
    51    30    49 1   
    52    31    49 1   
@<TRIPOS>SUBSTRUCTURE
     1 HZ8         1 TEMP              0 ****  ****    0 ROOT
