@<TRIPOS>MOLECULE
HZ8
   50    52     1     0     0
SMALL
No Charge or Current Charge


@<TRIPOS>ATOM
      1 C21          2.6850    43.3250    58.2540 c3         1 HZ8       0.154100
      2 C22          2.7650    45.7880    58.2380 c6         1 HZ8       0.168800
      3 C23          2.3380    47.0750    58.9780 c6         1 HZ8      -0.090400
      4 C19          2.5280    45.8100    61.1670 c6         1 HZ8      -0.090400
      5 C1           7.1980    49.2520    59.2140 c3         1 HZ8       0.229800
      6 N1           4.4800    49.4600    60.3050 nb         1 HZ8      -0.349000
      7 C2           6.4760    51.5240    58.3560 c3         1 HZ8       0.215100
      8 C3           5.3240    50.5000    60.3410 ca         1 HZ8       0.446900
      9 C4           3.4620    49.4580    61.1790 ca         1 HZ8       0.441900
     10 C5           4.0570    51.4630    62.1570 ca         1 HZ8       0.100000
     11 C6           3.8510    52.4830    63.1050 ca         1 HZ8      -0.124000
     12 C7           4.7370    53.5690    63.1950 ca         1 HZ8      -0.071000
     13 C8           5.8450    53.6390    62.3390 ca         1 HZ8      -0.157000
     14 C9           6.0640    52.6310    61.3860 ca         1 HZ8      -0.052000
     15 C10          5.1640    51.5460    61.2810 ca         1 HZ8      -0.213000
     16 C            6.7370    48.3080    58.0860 c3         1 HZ8      -0.115100
     17 N2           3.2120    50.4170    62.0930 nb         1 HZ8      -0.295000
     18 N6           2.5640    48.3570    61.1330 nh         1 HZ8      -0.772300
     19 C18          2.9350    47.0970    60.4040 c6         1 HZ8       0.238500
     20 N7           2.3810    44.5670    58.9970 n3         1 HZ8      -0.719600
     21 C20          2.9610    44.5610    60.3680 c6         1 HZ8       0.168800
     22 H1           2.3320    42.4450    58.8070 h1         1 HZ8       0.029367
     23 H2           2.1910    43.3290    57.2730 h1         1 HZ8       0.029367
     24 H3           3.7670    43.2200    58.0940 h1         1 HZ8       0.029367
     25 H4           3.8540    45.8100    58.0800 h1         1 HZ8       0.030200
     26 H5           2.2940    45.7820    57.2440 h1         1 HZ8       0.030200
     27 H6           2.6790    47.9530    58.4130 hc         1 HZ8       0.053950
     28 H7           1.2430    47.1290    59.0200 hc         1 HZ8       0.053950
     29 H8           0.8130    49.4810    61.6460 h1         1 HZ8       0.045033
     30 H9           0.4910    47.8070    61.2040 h1         1 HZ8       0.045033
     31 H10          1.2250    48.1740    62.7880 h1         1 HZ8       0.045033
     32 H11          1.4430    45.7660    61.3260 hc         1 HZ8       0.053950
     33 H12          2.9980    45.7960    62.1590 hc         1 HZ8       0.053950
     34 H13          7.2150    48.6870    60.1560 h1         1 HZ8       0.053700
     35 H14          8.2360    49.5540    59.0170 h1         1 HZ8       0.053700
     36 H15          5.7580    52.3310    58.5500 h1         1 HZ8       0.042033
     37 H16          7.4850    51.9550    58.3650 h1         1 HZ8       0.042033
     38 H17          6.2690    51.1250    57.3550 h1         1 HZ8       0.042033
     39 H18          2.9990    52.4280    63.7790 ha         1 HZ8       0.129000
     40 H19          4.5680    54.3500    63.9340 ha         1 HZ8       0.112000
     41 H20          6.5390    54.4730    62.4150 ha         1 HZ8       0.112000
     42 H21          6.9400    52.6980    60.7460 ha         1 HZ8       0.108000
     43 H22          7.3920    47.4300    58.0390 hc         1 HZ8       0.042033
     44 H23          5.7120    47.9590    58.2600 hc         1 HZ8       0.042033
     45 H24          6.7730    48.8110    57.1140 hc         1 HZ8       0.042033
     46 H25          4.0290    47.0360    60.3020 h1         1 HZ8       0.081700
     47 H27          2.6360    43.6630    60.9150 h1         1 HZ8       0.030200
     48 H28          4.0600    44.5280    60.3160 h1         1 HZ8       0.030200
     49 C17          1.2030    48.4580    61.7270 c3         1 HZ8       0.209100
     50 N            6.3580    50.4600    59.3800 nh         1 HZ8      -0.786300
@<TRIPOS>BOND
     1     1    20 1   
     2     1    22 1   
     3     1    23 1   
     4     1    24 1   
     5     2     3 1   
     6     2    20 1   
     7     2    25 1   
     8     2    26 1   
     9     3    19 1   
    10     3    27 1   
    11     3    28 1   
    12     4    19 1   
    13     4    21 1   
    14     4    32 1   
    15     4    33 1   
    16     5    16 1   
    17     5    34 1   
    18     5    35 1   
    19     5    50 1   
    20     6     8 ar  
    21     6     9 ar  
    22     7    36 1   
    23     7    37 1   
    24     7    38 1   
    25     7    50 1   
    26     8    15 ar  
    27     8    50 1   
    28     9    17 ar  
    29     9    18 1   
    30    10    11 ar  
    31    10    15 ar  
    32    10    17 ar  
    33    11    12 ar  
    34    11    39 1   
    35    12    13 ar  
    36    12    40 1   
    37    13    14 ar  
    38    13    41 1   
    39    14    15 ar  
    40    14    42 1   
    41    16    43 1   
    42    16    44 1   
    43    16    45 1   
    44    18    19 1   
    45    18    49 1   
    46    19    46 1   
    47    20    21 1   
    48    21    47 1   
    49    21    48 1   
    50    29    49 1   
    51    30    49 1   
    52    31    49 1   
@<TRIPOS>SUBSTRUCTURE
     1 HZ8         1 TEMP              0 ****  ****    0 ROOT
