@<TRIPOS>MOLECULE
HZB
   40    41     1     0     0
SMALL
No Charge or Current Charge


@<TRIPOS>ATOM
      1 C4           1.1120     0.1300     0.1240 c6         1 HZB       0.183300
      2 C3           2.2750     0.1200     1.1710 c6         1 HZB       0.182300
      3 C8          -2.4820    -1.0270     0.6020 c6         1 HZB       0.152300
      4 C2           3.5850     0.7120     0.5630 c6         1 HZB       0.142300
      5 C1           4.0130    -0.0660    -0.7200 c6         1 HZB       0.148300
      6 C6           2.8470    -0.0900    -1.7680 c6         1 HZB       0.139300
      7 C5           1.5370    -0.6520    -1.1550 c6         1 HZB      -0.144400
      8 C7          -1.3200    -0.1720    -0.0060 c6         1 HZB       0.353300
      9 O9          -0.0920    -0.4340     0.7030 os         1 HZB      -0.434000
     10 C10         -4.0610     0.8610    -0.1270 c6         1 HZB       0.089300
     11 C11         -2.8080     1.6110    -0.6620 c6         1 HZB       0.134600
     12 O12         -1.6420     1.2280     0.1000 os         1 HZB      -0.456000
     13 O7           4.6470     0.6530     1.5370 oh         1 HZB      -0.713000
     14 O8           1.9430     0.8450     2.3740 oh         1 HZB      -0.705000
     15 O10          2.5970     1.2280    -2.2750 oh         1 HZB      -0.721000
     16 C9          -3.8070    -0.6790    -0.1550 c6         1 HZB       0.181300
     17 O13         -2.1750    -2.4450     0.5500 oh         1 HZB      -0.703000
     18 O14         -4.9510    -1.3470     0.4080 oh         1 HZB      -0.640000
     19 O15         -5.2440     1.1870    -0.8900 oh         1 HZB      -0.723000
     20 H1           0.9140     1.1790    -0.1450 h1         1 HZB       0.065700
     21 H2           2.4700    -0.9330     1.4270 h1         1 HZB       0.068700
     22 H3          -2.6020    -0.7150     1.6500 h1         1 HZB       0.068700
     23 H4           3.3930     1.7590     0.2830 h1         1 HZB       0.059700
     24 H5           4.8620     0.4660    -1.1730 h1         1 HZB       0.046700
     25 H7           3.1500    -0.7440    -2.6000 h1         1 HZB       0.034700
     26 H8           1.6750    -1.7130    -0.9050 hc         1 HZB       0.061200
     27 H9           0.7450    -0.6180    -1.9130 hc         1 HZB       0.061200
     28 H10         -1.2030    -0.4410    -1.0650 h2         1 HZB       0.025700
     29 H11         -4.2020     1.1620     0.9230 h1         1 HZB       0.059700
     30 H12         -2.6420     1.3780    -1.7250 h1         1 HZB       0.054700
     31 H13         -2.9490     2.6970    -0.5670 h1         1 HZB       0.054700
     32 H14          5.0860    -0.2160     1.3590 ho         1 HZB       0.508000
     33 H15          2.8190     1.0640     2.7730 ho         1 HZB       0.517000
     34 H16          2.1220     1.1240    -3.1320 ho         1 HZB       0.510000
     35 H17         -3.6840    -0.9820    -1.2060 h1         1 HZB       0.049700
     36 H18         -1.2720    -2.5410     0.9370 ho         1 HZB       0.517000
     37 H19         -5.7210    -0.8460     0.0550 ho         1 HZB       0.456000
     38 H20         -5.4380     2.1440    -0.7450 ho         1 HZB       0.512000
     39 O1           4.4270    -1.4000    -0.3520 oh         1 HZB      -0.697000
     40 H6           4.7840    -1.8290    -1.1660 ho         1 HZB       0.501000
@<TRIPOS>BOND
     1     1     2 1   
     2     1     7 1   
     3     1     9 1   
     4     1    20 1   
     5     2     4 1   
     6     2    14 1   
     7     2    21 1   
     8     3     8 1   
     9     3    16 1   
    10     3    17 1   
    11     3    22 1   
    12     4     5 1   
    13     4    13 1   
    14     4    23 1   
    15     5     6 1   
    16     5    24 1   
    17     5    39 1   
    18     6     7 1   
    19     6    15 1   
    20     6    25 1   
    21     7    26 1   
    22     7    27 1   
    23     8     9 1   
    24     8    12 1   
    25     8    28 1   
    26    10    11 1   
    27    10    16 1   
    28    10    19 1   
    29    10    29 1   
    30    11    12 1   
    31    11    30 1   
    32    11    31 1   
    33    13    32 1   
    34    14    33 1   
    35    15    34 1   
    36    16    18 1   
    37    16    35 1   
    38    17    36 1   
    39    18    37 1   
    40    19    38 1   
    41    39    40 1   
@<TRIPOS>SUBSTRUCTURE
     1 HZB         1 TEMP              0 ****  ****    0 ROOT
