@<TRIPOS>MOLECULE
HZB
   40    41     1     0     0
SMALL
abcg2


@<TRIPOS>ATOM
      1 C4           1.1010     0.1450    -0.0170 c6         1 HZB       0.183300
      2 C3           2.1650     0.2520     1.0630 c6         1 HZB       0.182300
      3 C8          -2.3370    -0.9660     0.3160 c6         1 HZB       0.152300
      4 C2           3.5120     0.6180     0.4380 c6         1 HZB       0.142300
      5 C1           3.9450    -0.3750    -0.6370 c6         1 HZB       0.148300
      6 C6           2.8640    -0.4900    -1.7160 c6         1 HZB       0.139300
      7 C5           1.5220    -0.8530    -1.0890 c6         1 HZB      -0.144400
      8 C7          -1.2700     0.0750    -0.0340 c6         1 HZB       0.353300
      9 O9          -0.1040    -0.2790     0.6080 os         1 HZB      -0.434000
     10 C10         -3.9950     0.8780     0.1030 c6         1 HZB       0.089300
     11 C11         -2.8250     1.7980    -0.2340 c6         1 HZB       0.134600
     12 O12         -1.6490     1.3540     0.4060 os         1 HZB      -0.456000
     13 O7           4.4440     0.6950     1.4950 oh         1 HZB      -0.713000
     14 O8           1.7620     1.2330     1.9870 oh         1 HZB      -0.705000
     15 O10          2.8190     0.7490    -2.3920 oh         1 HZB      -0.721000
     16 C9          -3.6630    -0.5540    -0.3020 c6         1 HZB       0.181300
     17 O13         -1.9830    -2.2270    -0.1860 oh         1 HZB      -0.703000
     18 O14         -4.6520    -1.4610     0.1150 oh         1 HZB      -0.640000
     19 O15         -5.1620     1.2540    -0.5920 oh         1 HZB      -0.723000
     20 H1           0.9590     1.1370    -0.4650 h1         1 HZB       0.065700
     21 H2           2.2590    -0.7310     1.5530 h1         1 HZB       0.068700
     22 H3          -2.4480    -0.9840     1.4120 h1         1 HZB       0.068700
     23 H4           3.4010     1.5990    -0.0440 h1         1 HZB       0.059700
     24 H5           4.8670     0.0020    -1.1070 h1         1 HZB       0.046700
     25 H7           3.1510    -1.2930    -2.4100 h1         1 HZB       0.034700
     26 H8           1.5930    -1.8500    -0.6470 hc         1 HZB       0.061200
     27 H9           0.7600    -0.9180    -1.8730 hc         1 HZB       0.061200
     28 H10         -1.1400     0.0910    -1.1320 h2         1 HZB       0.025700
     29 H11         -4.1580     0.9020     1.1900 h1         1 HZB       0.059700
     30 H12         -2.6930     1.8410    -1.3260 h1         1 HZB       0.054700
     31 H13         -3.0210     2.8130     0.1140 h1         1 HZB       0.054700
     32 H14          5.1760     1.2560     1.2210 ho         1 HZB       0.508000
     33 H15          2.4990     1.3800     2.5910 ho         1 HZB       0.517000
     34 H16          2.1480     0.6940    -3.0800 ho         1 HZB       0.510000
     35 H17         -3.5480    -0.5750    -1.3990 h1         1 HZB       0.049700
     36 H18         -1.1900    -2.5190     0.2740 ho         1 HZB       0.517000
     37 H19         -5.4900    -1.1750    -0.2630 ho         1 HZB       0.456000
     38 H20         -5.5650     2.0000    -0.1370 ho         1 HZB       0.512000
     39 O1           4.1710    -1.6210    -0.0240 oh         1 HZB      -0.697000
     40 H6           4.4830    -2.2350    -0.6950 ho         1 HZB       0.501000
@<TRIPOS>BOND
     1     1     2 1   
     2     1     7 1   
     3     1     9 1   
     4     1    20 1   
     5     2     4 1   
     6     2    14 1   
     7     2    21 1   
     8     3     8 1   
     9     3    16 1   
    10     3    17 1   
    11     3    22 1   
    12     4     5 1   
    13     4    13 1   
    14     4    23 1   
    15     5     6 1   
    16     5    24 1   
    17     5    39 1   
    18     6     7 1   
    19     6    15 1   
    20     6    25 1   
    21     7    26 1   
    22     7    27 1   
    23     8     9 1   
    24     8    12 1   
    25     8    28 1   
    26    10    11 1   
    27    10    16 1   
    28    10    19 1   
    29    10    29 1   
    30    11    12 1   
    31    11    30 1   
    32    11    31 1   
    33    13    32 1   
    34    14    33 1   
    35    15    34 1   
    36    16    18 1   
    37    16    35 1   
    38    17    36 1   
    39    18    37 1   
    40    19    38 1   
    41    39    40 1   
@<TRIPOS>SUBSTRUCTURE
     1 HZB         1 TEMP              0 ****  ****    0 ROOT
