@<TRIPOS>MOLECULE
HZC
   35    35     1     0     0
SMALL
bcc


@<TRIPOS>ATOM
      1 C10         -3.4840   -15.4310    40.5040 c3         1 HZC      -0.089600
      2 C11         -1.5920   -14.5570    37.6780 c3         1 HZC       0.151800
      3 C1          -4.0640   -11.8630    36.9260 c6         1 HZC      -0.070400
      4 C2          -2.5550   -11.6750    36.8140 c6         1 HZC      -0.063700
      5 C3          -1.8990   -12.0690    38.1340 c6         1 HZC      -0.070400
      6 C4          -2.2330   -13.4970    38.5780 c6         1 HZC      -0.050700
      7 C5          -3.7630   -13.6530    38.7050 c6         1 HZC      -0.053700
      8 C6          -4.4530   -13.2610    37.3930 c6         1 HZC      -0.070400
      9 C7          -2.2000   -10.2480    36.4230 c3         1 HZC      -0.087100
     10 C8          -4.2160   -15.0310    39.2230 c3         1 HZC      -0.055700
     11 C9          -5.7210   -15.0660    39.4860 c3         1 HZC      -0.089600
     12 N12         -0.1410   -14.4100    37.6230 n8         1 HZC      -0.887800
     13 H1          -3.8620   -16.3810    40.8840 hc         1 HZC       0.032867
     14 H2          -2.4090   -15.5460    40.3620 hc         1 HZC       0.032867
     15 H3          -3.6370   -14.6820    41.2860 hc         1 HZC       0.032867
     16 H4          -2.0600   -14.5460    36.6840 h1         1 HZC       0.027200
     17 H5          -1.8000   -15.5450    38.0940 h1         1 HZC       0.027200
     18 H7          -4.5430   -11.6430    35.9670 hc         1 HZC       0.037200
     19 H8          -2.1870   -12.3420    36.0230 hc         1 HZC       0.040700
     20 H9          -0.8160   -11.9320    38.0750 hc         1 HZC       0.042200
     21 H10         -2.2430   -11.3750    38.9100 hc         1 HZC       0.042200
     22 H11         -1.7930   -13.6270    39.5720 hc         1 HZC       0.059700
     23 H12         -4.0780   -12.9210    39.4650 hc         1 HZC       0.045700
     24 H13         -5.5380   -13.2970    37.5140 hc         1 HZC       0.037200
     25 H14         -4.2150   -13.9940    36.6150 hc         1 HZC       0.037200
     26 H15         -1.1210   -10.1180    36.3220 hc         1 HZC       0.031700
     27 H16         -2.6580    -9.9700    35.4710 hc         1 HZC       0.031700
     28 H17         -2.5490    -9.5380    37.1770 hc         1 HZC       0.031700
     29 H18         -3.9960   -15.7820    38.4540 hc         1 HZC       0.042700
     30 H19         -6.0140   -16.0230    39.9200 hc         1 HZC       0.032867
     31 H20         -6.0080   -14.2830    40.1930 hc         1 HZC       0.032867
     32 H21         -6.3140   -14.9290    38.5810 hc         1 HZC       0.032867
     33 H22          0.2540   -15.2210    37.1640 hn         1 HZC       0.334300
     34 H23          0.1010   -13.6270    37.0300 hn         1 HZC       0.334300
     35 H6          -4.4550   -11.1270    37.6390 hc         1 HZC       0.037200
@<TRIPOS>BOND
     1     1    10 1   
     2     1    13 1   
     3     1    14 1   
     4     1    15 1   
     5     2     6 1   
     6     2    12 1   
     7     2    16 1   
     8     2    17 1   
     9     3     4 1   
    10     3     8 1   
    11     3    18 1   
    12     3    35 1   
    13     4     5 1   
    14     4     9 1   
    15     4    19 1   
    16     5     6 1   
    17     5    20 1   
    18     5    21 1   
    19     6     7 1   
    20     6    22 1   
    21     7     8 1   
    22     7    10 1   
    23     7    23 1   
    24     8    24 1   
    25     8    25 1   
    26     9    26 1   
    27     9    27 1   
    28     9    28 1   
    29    10    11 1   
    30    10    29 1   
    31    11    30 1   
    32    11    31 1   
    33    11    32 1   
    34    12    33 1   
    35    12    34 1   
@<TRIPOS>SUBSTRUCTURE
     1 HZC         1 TEMP              0 ****  ****    0 ROOT
