@<TRIPOS>MOLECULE
HZC
   35    35     1     0     0
SMALL
No Charge or Current Charge


@<TRIPOS>ATOM
      1 C10         -3.5220   -15.4660    40.5870 c3         1 HZC      -0.089600
      2 C11         -1.5540   -14.5750    37.6710 c3         1 HZC       0.151800
      3 C1          -4.0920   -11.8120    36.9330 c6         1 HZC      -0.070400
      4 C2          -2.5590   -11.6430    36.7990 c6         1 HZC      -0.063700
      5 C3          -1.8630   -12.0300    38.1320 c6         1 HZC      -0.070400
      6 C4          -2.2080   -13.4820    38.5870 c6         1 HZC      -0.050700
      7 C5          -3.7700   -13.6340    38.7330 c6         1 HZC      -0.053700
      8 C6          -4.4790   -13.2380    37.3960 c6         1 HZC      -0.070400
      9 C7          -2.1850   -10.2010    36.3620 c3         1 HZC      -0.087100
     10 C8          -4.2390   -15.0420    39.2780 c3         1 HZC      -0.055700
     11 C9          -5.7720   -15.1400    39.4960 c3         1 HZC      -0.089600
     12 N12         -0.0770   -14.5210    37.6190 n8         1 HZC      -0.998200
     13 H1          -3.9200   -16.4170    40.9610 hc         1 HZC       0.032867
     14 H2          -2.4480   -15.6110    40.4290 hc         1 HZC       0.032867
     15 H3          -3.6590   -14.7090    41.3690 hc         1 HZC       0.032867
     16 H4          -1.9420   -14.4840    36.6480 h1         1 HZC       0.027200
     17 H5          -1.8270   -15.5710    38.0440 h1         1 HZC       0.027200
     18 H7          -4.5770   -11.5960    35.9710 hc         1 HZC       0.037200
     19 H8          -2.2020   -12.3040    35.9990 hc         1 HZC       0.040700
     20 H9          -0.7750   -11.9060    38.0380 hc         1 HZC       0.042200
     21 H10         -2.1710   -11.3270    38.9180 hc         1 HZC       0.042200
     22 H11         -1.7530   -13.6130    39.5770 hc         1 HZC       0.059700
     23 H12         -4.0930   -12.9120    39.4970 hc         1 HZC       0.045700
     24 H13         -5.5690   -13.2610    37.5140 hc         1 HZC       0.037200
     25 H14         -4.2390   -13.9650    36.6090 hc         1 HZC       0.037200
     26 H15         -1.1010   -10.0960    36.2330 hc         1 HZC       0.031700
     27 H16         -2.6570    -9.9430    35.4060 hc         1 HZC       0.031700
     28 H17         -2.5070    -9.4620    37.1050 hc         1 HZC       0.031700
     29 H18         -3.9960   -15.8040    38.5270 hc         1 HZC       0.042700
     30 H19         -6.0410   -16.0980    39.9570 hc         1 HZC       0.032867
     31 H20         -6.1260   -14.3360    40.1520 hc         1 HZC       0.032867
     32 H21         -6.3170   -15.0830    38.5470 hc         1 HZC       0.032867
     33 H22          0.2600   -15.2230    36.9490 hn         1 HZC       0.389500
     34 H23          0.2040   -13.6290    37.1970 hn         1 HZC       0.389500
     35 H6          -4.4860   -11.0780    37.6490 hc         1 HZC       0.037200
@<TRIPOS>BOND
     1     1    10 1   
     2     1    13 1   
     3     1    14 1   
     4     1    15 1   
     5     2     6 1   
     6     2    12 1   
     7     2    16 1   
     8     2    17 1   
     9     3     4 1   
    10     3     8 1   
    11     3    18 1   
    12     3    35 1   
    13     4     5 1   
    14     4     9 1   
    15     4    19 1   
    16     5     6 1   
    17     5    20 1   
    18     5    21 1   
    19     6     7 1   
    20     6    22 1   
    21     7     8 1   
    22     7    10 1   
    23     7    23 1   
    24     8    24 1   
    25     8    25 1   
    26     9    26 1   
    27     9    27 1   
    28     9    28 1   
    29    10    11 1   
    30    10    29 1   
    31    11    30 1   
    32    11    31 1   
    33    11    32 1   
    34    12    33 1   
    35    12    34 1   
@<TRIPOS>SUBSTRUCTURE
     1 HZC         1 TEMP              0 ****  ****    0 ROOT
