@<TRIPOS>MOLECULE
HZD
  102   107     1     0     0
SMALL
bcc


@<TRIPOS>ATOM
      1 C10          5.9350    -3.3030     0.0920 c          1 HZD       0.671100
      2 C01          2.3440     4.6680     1.0040 c3         1 HZD      -0.023400
      3 C03          3.5650     3.0230     2.2560 ca         1 HZD       0.030700
      4 C04          4.2430     1.8190     2.4140 ca         1 HZD      -0.180000
      5 C05          4.3850     0.9730     1.3480 ca         1 HZD       0.031700
      6 C07          6.4660    -0.3330     0.9470 cc         1 HZD       0.161200
      7 C09          6.7820    -2.7210     1.2240 c3         1 HZD      -0.108700
      8 C14          3.3850    -5.3270     0.4240 c3         1 HZD       0.103400
      9 C16          2.0080    -3.9970     1.7690 c3         1 HZD       0.132400
     10 C17          1.8000    -2.5940     2.2800 c3         1 HZD       0.137400
     11 C19          0.9280    -0.5040     1.6790 c3         1 HZD       0.135400
     12 C20          0.4710     0.3170     0.5000 c3         1 HZD       0.147400
     13 C22         -1.0530     0.3920    -1.2660 c3         1 HZD       0.106400
     14 C23         -2.2930    -0.2760    -1.8230 c3         1 HZD       0.109000
     15 C25         -4.2650     0.9210    -0.9880 c          1 HZD       0.663100
     16 C27         -5.4210     0.8800    -0.0130 c3         1 HZD      -0.153400
     17 C28         -6.7570     1.1210    -0.7120 c3         1 HZD      -0.069400
     18 C29         -7.9270     1.1350     0.2630 c3         1 HZD      -0.077400
     19 C30         -9.2550     1.3710    -0.4470 c3         1 HZD      -0.058400
     20 C31        -10.4580     1.3250     0.4760 c5         1 HZD       0.023400
     21 C33        -12.1550     2.2290     2.1450 c5         1 HZD      -0.015300
     22 C34        -12.8640     1.9630     0.8120 c5         1 HZD       0.103700
     23 C36        -12.7590     3.5130    -0.9430 c          1 HZD       0.823500
     24 C39        -11.8090     1.4920    -0.2330 c5         1 HZD       0.097700
     25 C40          8.4790    -1.1560     0.2860 ca         1 HZD      -0.054200
     26 C41          8.6360     0.1890    -0.0380 ca         1 HZD      -0.093100
     27 C43          9.8030     0.6640    -0.6230 ca         1 HZD      -0.056000
     28 C44         10.8050    -0.2520    -0.8760 ca         1 HZD      -0.072000
     29 C45         10.6460    -1.6040    -0.5550 ca         1 HZD      -0.057000
     30 C46          9.4880    -2.0770     0.0290 ca         1 HZD      -0.093000
     31 C47          3.8420     1.3490     0.0930 ca         1 HZD      -0.071000
     32 C48          3.1570     2.5840    -0.0160 ca         1 HZD       0.010700
     33 C49          2.5920     2.9750    -1.2400 ca         1 HZD      -0.151000
     34 C50          2.7130     2.1530    -2.3310 ca         1 HZD      -0.030000
     35 C51          3.3940     0.9290    -2.2430 ca         1 HZD      -0.079000
     36 C52          3.9450     0.5330    -1.0550 ca         1 HZD      -0.091000
     37 N02          3.0460     3.3850     1.0980 na         1 HZD       0.053900
     38 N08          7.2380    -1.3950     0.8650 na         1 HZD       0.003800
     39 N12          5.7100    -4.6110     0.2060 ns         1 HZD      -0.523900
     40 N24         -3.4530    -0.1490    -0.9720 ns         1 HZD      -0.572900
     41 N35        -13.4000     3.1480     0.1960 ns         1 HZD      -0.586900
     42 N38        -11.8120     2.5670    -1.1910 ns         1 HZD      -0.584900
     43 O11          5.5080    -2.5800    -0.7900 o          1 HZD      -0.596100
     44 O15          3.0550    -4.0250     0.8320 os         1 HZD      -0.428600
     45 O18          1.3910    -1.7520     1.2330 os         1 HZD      -0.389600
     46 O21         -0.6730    -0.2540    -0.0750 os         1 HZD      -0.387600
     47 O26         -4.0950     1.8680    -1.7470 o          1 HZD      -0.610100
     48 O37        -12.9930     4.4990    -1.6250 o          1 HZD      -0.644500
     49 S32        -10.4410     2.6430     1.7360 ss         1 HZD      -0.322200
     50 S42          7.2110     1.0770     0.3730 ss         1 HZD       0.220900
     51 H1           1.3170     4.5050     0.6880 h1         1 HZD       0.102367
     52 H2           2.3430     5.1400     1.9800 h1         1 HZD       0.102367
     53 H3           2.8550     5.3130     0.2950 h1         1 HZD       0.102367
     54 H4           3.4400     3.7020     3.0850 h4         1 HZD       0.209000
     55 H5           4.6340     1.5750     3.3910 ha         1 HZD       0.191000
     56 H6           5.1900    -0.5540     2.5990 hc         1 HZD       0.126200
     57 H7           4.5080    -1.1500     1.0910 hc         1 HZD       0.126200
     58 H8           6.1850    -2.6670     2.1350 h1         1 HZD       0.109200
     59 H9           7.6410    -3.3420     1.4700 h1         1 HZD       0.109200
     60 H10          4.9090    -6.2840    -0.7340 h1         1 HZD       0.091200
     61 H11          4.3960    -4.7390    -1.3940 h1         1 HZD       0.091200
     62 H12          2.5630    -5.8010    -0.1300 h1         1 HZD       0.048200
     63 H13          3.5940    -5.9660     1.2940 h1         1 HZD       0.048200
     64 H14          2.2360    -4.6370     2.6320 h1         1 HZD       0.050700
     65 H15          1.0740    -4.3740     1.3290 h1         1 HZD       0.050700
     66 H16          1.0410    -2.6400     3.0720 h1         1 HZD       0.024700
     67 H17          2.7230    -2.2230     2.7510 h1         1 HZD       0.024700
     68 H18          1.7210     0.0550     2.1990 h1         1 HZD       0.022200
     69 H19          0.1070    -0.6200     2.4010 h1         1 HZD       0.022200
     70 H20          0.2730     1.3420     0.8450 h1         1 HZD       0.008700
     71 H21          1.2820     0.3760    -0.2390 h1         1 HZD       0.008700
     72 H22         -0.2520     0.3320    -2.0160 h1         1 HZD       0.026700
     73 H23         -1.2480     1.4590    -1.0910 h1         1 HZD       0.026700
     74 H24         -2.5100     0.1550    -2.8000 h1         1 HZD       0.070700
     75 H25         -2.1030    -1.3390    -1.9770 h1         1 HZD       0.070700
     76 H26         -5.4470    -0.0690     0.5270 hc         1 HZD       0.057700
     77 H27         -5.2550     1.6620     0.7340 hc         1 HZD       0.057700
     78 H28         -6.7200     2.0720    -1.2490 hc         1 HZD       0.056700
     79 H29         -6.9200     0.3430    -1.4630 hc         1 HZD       0.056700
     80 H30         -7.9650     0.1850     0.8070 hc         1 HZD       0.045700
     81 H31         -7.7610     1.9130     1.0140 hc         1 HZD       0.045700
     82 H32         -9.2280     2.3330    -0.9670 hc         1 HZD       0.055700
     83 H33         -9.3900     0.6030    -1.2160 hc         1 HZD       0.055700
     84 H34        -10.4730     0.3630     1.0020 h1         1 HZD       0.067700
     85 H35        -12.6200     3.0400     2.7040 h1         1 HZD       0.080200
     86 H36        -12.1760     1.3330     2.7660 h1         1 HZD       0.080200
     87 H37        -13.6450     1.2140     0.9620 h1         1 HZD       0.075700
     88 H38        -12.0930     0.5440    -0.6980 h1         1 HZD       0.064700
     89 H39          9.9180     1.7100    -0.8700 ha         1 HZD       0.175000
     90 H40         11.7260     0.0830    -1.3320 ha         1 HZD       0.180000
     91 H41         11.4450    -2.2990    -0.7700 ha         1 HZD       0.180000
     92 H42          9.3830    -3.1260     0.2680 ha         1 HZD       0.168000
     93 H43          2.0630     3.9100    -1.3400 ha         1 HZD       0.175000
     94 H44          2.2760     2.4580    -3.2720 ha         1 HZD       0.183000
     95 H45          3.4790     0.2960    -3.1150 ha         1 HZD       0.184000
     96 H46          4.4610    -0.4160    -1.0040 ha         1 HZD       0.184000
     97 H47          6.1150    -5.0980     0.9920 hn         1 HZD       0.321500
     98 H48         -3.6260    -0.8760    -0.2990 hn         1 HZD       0.322500
     99 H49        -14.0140     3.7810     0.6820 hn         1 HZD       0.345500
    100 H50        -11.4220     2.4630    -2.1120 hn         1 HZD       0.337500
    101 C06          5.0950    -0.3390     1.5300 c3         1 HZD      -0.100400
    102 C13          4.6110    -5.2700    -0.4690 c3         1 HZD       0.090000
@<TRIPOS>BOND
     1     1     7 1   
     2     1    39 1   
     3     1    43 2   
     4     2    37 1   
     5     2    51 1   
     6     2    52 1   
     7     2    53 1   
     8     3     4 ar  
     9     3    37 2   
    10     3    54 1   
    11     4     5 ar  
    12     4    55 1   
    13     5    31 ar  
    14     5   101 1   
    15     6    38 2   
    16     6    50 1   
    17     6   101 1   
    18     7    38 1   
    19     7    58 1   
    20     7    59 1   
    21     8    44 1   
    22     8    62 1   
    23     8    63 1   
    24     8   102 1   
    25     9    10 1   
    26     9    44 1   
    27     9    64 1   
    28     9    65 1   
    29    10    45 1   
    30    10    66 1   
    31    10    67 1   
    32    11    12 1   
    33    11    45 1   
    34    11    68 1   
    35    11    69 1   
    36    12    46 1   
    37    12    70 1   
    38    12    71 1   
    39    13    14 1   
    40    13    46 1   
    41    13    72 1   
    42    13    73 1   
    43    14    40 1   
    44    14    74 1   
    45    14    75 1   
    46    15    16 1   
    47    15    40 1   
    48    15    47 2   
    49    16    17 1   
    50    16    76 1   
    51    16    77 1   
    52    17    18 1   
    53    17    78 1   
    54    17    79 1   
    55    18    19 1   
    56    18    80 1   
    57    18    81 1   
    58    19    20 1   
    59    19    82 1   
    60    19    83 1   
    61    20    24 1   
    62    20    49 1   
    63    20    84 1   
    64    21    22 1   
    65    21    49 1   
    66    21    85 1   
    67    21    86 1   
    68    22    24 1   
    69    22    41 1   
    70    22    87 1   
    71    23    41 1   
    72    23    42 1   
    73    23    48 2   
    74    24    42 1   
    75    24    88 1   
    76    25    26 ar  
    77    25    30 ar  
    78    25    38 1   
    79    26    27 ar  
    80    26    50 1   
    81    27    28 ar  
    82    27    89 1   
    83    28    29 ar  
    84    28    90 1   
    85    29    30 ar  
    86    29    91 1   
    87    30    92 1   
    88    31    32 ar  
    89    31    36 ar  
    90    32    33 ar  
    91    32    37 1   
    92    33    34 ar  
    93    33    93 1   
    94    34    35 ar  
    95    34    94 1   
    96    35    36 ar  
    97    35    95 1   
    98    36    96 1   
    99    39    97 1   
   100    39   102 1   
   101    40    98 1   
   102    41    99 1   
   103    42   100 1   
   104    56   101 1   
   105    57   101 1   
   106    60   102 1   
   107    61   102 1   
@<TRIPOS>SUBSTRUCTURE
     1 HZD         1 TEMP              0 ****  ****    0 ROOT
