@<TRIPOS>MOLECULE
HZD
  102   107     1     0     0
SMALL
No Charge or Current Charge


@<TRIPOS>ATOM
      1 C10          6.2380    -3.4400     0.2600 c          1 HZD       0.604100
      2 C01          1.6880     4.2820     0.9160 c3         1 HZD       0.005900
      3 C03          3.0840     2.8240     2.3500 ca         1 HZD       0.048700
      4 C04          3.8590     1.6770     2.5710 ca         1 HZD      -0.162000
      5 C05          4.2260     0.8470     1.4980 ca         1 HZD       0.031700
      6 C07          6.5150    -0.2590     1.3320 cc         1 HZD       0.161200
      7 C09          7.0580    -2.7690     1.3640 c3         1 HZD      -0.079400
      8 C14          3.4460    -5.5420     0.4810 c3         1 HZD       0.126600
      9 C16          1.7670    -4.1490     1.5420 c3         1 HZD       0.155600
     10 C17          1.4710    -2.6840     1.9460 c3         1 HZD       0.160600
     11 C19          0.7570    -0.5600     1.0300 c3         1 HZD       0.158600
     12 C20          0.4570     0.1480    -0.3120 c3         1 HZD       0.170600
     13 C22         -1.1720     0.2510    -2.0940 c3         1 HZD       0.129600
     14 C23         -2.5390    -0.3330    -2.5170 c3         1 HZD       0.109000
     15 C25         -4.2170     1.1930    -1.4170 c          1 HZD       0.596100
     16 C27         -5.2530     1.2830    -0.2920 c3         1 HZD      -0.153400
     17 C28         -6.6960     1.3390    -0.8490 c3         1 HZD      -0.069400
     18 C29         -7.7670     1.4270     0.2600 c3         1 HZD      -0.077400
     19 C30         -9.2100     1.4840    -0.2950 c3         1 HZD      -0.058400
     20 C31        -10.3130     1.5330     0.7970 c5         1 HZD       0.071300
     21 C33        -11.8640     2.6200     2.5360 c5         1 HZD       0.032600
     22 C34        -12.7500     1.9870     1.4100 c5         1 HZD       0.103700
     23 C36        -12.8650     3.3170    -0.5260 c          1 HZD       0.614000
     24 C39        -11.7970     1.3880     0.2940 c5         1 HZD       0.097700
     25 C40          8.6020    -0.9390     0.5900 ca         1 HZD      -0.054200
     26 C41          8.7220     0.4390     0.4980 ca         1 HZD      -0.220000
     27 C43          9.8900     1.0450     0.0050 ca         1 HZD      -0.038000
     28 C44         10.9560     0.2260    -0.4090 ca         1 HZD      -0.054000
     29 C45         10.8400    -1.1780    -0.3340 ca         1 HZD      -0.039000
     30 C46          9.6610    -1.7690     0.1630 ca         1 HZD      -0.075000
     31 C47          3.8200     1.2000     0.1820 ca         1 HZD      -0.071000
     32 C48          3.0400     2.3730    -0.0290 ca         1 HZD      -0.040000
     33 C49          2.6720     2.7260    -1.3520 ca         1 HZD      -0.133000
     34 C50          3.0510     1.9290    -2.4430 ca         1 HZD      -0.012000
     35 C51          3.8030     0.7680    -2.2320 ca         1 HZD      -0.061000
     36 C52          4.1860     0.4050    -0.9320 ca         1 HZD      -0.073000
     37 N02          2.6380     3.1600     1.0710 na         1 HZD       0.075300
     38 N08          7.3710    -1.3430     1.0990 na         1 HZD      -0.025500
     39 N12          5.8110    -4.7140     0.5610 ns         1 HZD      -0.456900
     40 N24         -3.6160    -0.0360    -1.5610 ns         1 HZD      -0.505900
     41 N35        -13.3540     3.1310     0.7210 ns         1 HZD      -0.519900
     42 N38        -11.9820     2.3340    -0.8130 ns         1 HZD      -0.517900
     43 O11          5.9630    -2.8890    -0.7970 o          1 HZD      -0.596100
     44 O15          3.0330    -4.2110     0.8510 os         1 HZD      -0.475000
     45 O18          1.1300    -1.9270     0.7690 os         1 HZD      -0.436000
     46 O21         -0.7950    -0.3320    -0.8340 os         1 HZD      -0.434000
     47 O26         -3.9240     2.1490    -2.1210 o          1 HZD      -0.610100
     48 O37        -13.1830     4.2170    -1.2790 o          1 HZD      -0.569000
     49 S32        -10.2700     3.1240     1.7410 ss         1 HZD      -0.418000
     50 S42          7.2730     1.3230     1.0320 ss         1 HZD       0.347800
     51 H1           0.7820     3.9330     0.4070 h1         1 HZD       0.102367
     52 H2           1.4020     4.6880     1.8940 h1         1 HZD       0.102367
     53 H3           2.1550     5.0820     0.3280 h1         1 HZD       0.102367
     54 H4           2.8010     3.4760     3.1770 h4         1 HZD       0.191000
     55 H5           4.1740     1.4420     3.5860 ha         1 HZD       0.173000
     56 H6           5.0840    -0.5950     2.8750 hc         1 HZD       0.126200
     57 H7           4.6080    -1.2690     1.3470 hc         1 HZD       0.126200
     58 H8           6.4760    -2.8360     2.2900 h1         1 HZD       0.109200
     59 H9           7.9720    -3.3510     1.5220 h1         1 HZD       0.109200
     60 H10          5.1920    -6.4820    -0.3970 h1         1 HZD       0.091200
     61 H11          4.6830    -4.9950    -1.2100 h1         1 HZD       0.091200
     62 H12          2.7150    -6.0070    -0.1940 h1         1 HZD       0.048200
     63 H13          3.5400    -6.1760     1.3730 h1         1 HZD       0.048200
     64 H14          1.7990    -4.7610     2.4530 h1         1 HZD       0.050700
     65 H15          0.9520    -4.5250     0.9090 h1         1 HZD       0.050700
     66 H16          0.6330    -2.6790     2.6550 h1         1 HZD       0.024700
     67 H17          2.3470    -2.2550     2.4500 h1         1 HZD       0.024700
     68 H18          1.5750    -0.0330     1.5350 h1         1 HZD       0.022200
     69 H19         -0.1280    -0.5110     1.6780 h1         1 HZD       0.022200
     70 H20          0.3990     1.2300    -0.1350 h1         1 HZD       0.008700
     71 H21          1.2740    -0.0410    -1.0190 h1         1 HZD       0.008700
     72 H22         -0.4260     0.0170    -2.8650 h1         1 HZD       0.026700
     73 H23         -1.2470     1.3430    -2.0110 h1         1 HZD       0.026700
     74 H24         -2.8130     0.0710    -3.5000 h1         1 HZD       0.070700
     75 H25         -2.4470    -1.4230    -2.6190 h1         1 HZD       0.070700
     76 H26         -5.1680     0.4100     0.3670 hc         1 HZD       0.057700
     77 H27         -5.0670     2.1990     0.2820 hc         1 HZD       0.057700
     78 H28         -6.7930     2.2060    -1.5140 hc         1 HZD       0.056700
     79 H29         -6.8800     0.4460    -1.4600 hc         1 HZD       0.056700
     80 H30         -7.6720     0.5590     0.9240 hc         1 HZD       0.045700
     81 H31         -7.5760     2.3180     0.8710 hc         1 HZD       0.045700
     82 H32         -9.2950     2.3560    -0.9550 hc         1 HZD       0.055700
     83 H33         -9.3730     0.6000    -0.9250 hc         1 HZD       0.055700
     84 H34        -10.1080     0.7210     1.5080 h1         1 HZD       0.067700
     85 H35        -12.3490     3.4750     3.0270 h1         1 HZD       0.080200
     86 H36        -11.6460     1.8730     3.3110 h1         1 HZD       0.080200
     87 H37        -13.4910     1.2700     1.7900 h1         1 HZD       0.075700
     88 H38        -12.0550     0.3570     0.0160 h1         1 HZD       0.064700
     89 H39          9.9720     2.1290    -0.0620 ha         1 HZD       0.157000
     90 H40         11.8680     0.6750    -0.7950 ha         1 HZD       0.162000
     91 H41         11.6640    -1.8070    -0.6640 ha         1 HZD       0.162000
     92 H42          9.5900    -2.8530     0.1990 ha         1 HZD       0.150000
     93 H43          2.0880     3.6190    -1.5610 ha         1 HZD       0.157000
     94 H44          2.7590     2.2110    -3.4530 ha         1 HZD       0.165000
     95 H45          4.0930     0.1490    -3.0780 ha         1 HZD       0.166000
     96 H46          4.7690    -0.5030    -0.8170 ha         1 HZD       0.166000
     97 H47          6.0920    -5.0920     1.4580 hn         1 HZD       0.321500
     98 H48         -3.9020    -0.7630    -0.9160 hn         1 HZD       0.322500
     99 H49        -14.0310     3.7840     1.0940 hn         1 HZD       0.345500
    100 H50        -11.5260     2.3190    -1.7160 hn         1 HZD       0.337500
    101 C06          5.0800    -0.3870     1.7980 c3         1 HZD      -0.100400
    102 C13          4.8180    -5.4640    -0.2270 c3         1 HZD       0.090000
@<TRIPOS>BOND
     1     1     7 1   
     2     1    39 1   
     3     1    43 2   
     4     2    37 1   
     5     2    51 1   
     6     2    52 1   
     7     2    53 1   
     8     3     4 ar  
     9     3    37 2   
    10     3    54 1   
    11     4     5 ar  
    12     4    55 1   
    13     5    31 ar  
    14     5   101 1   
    15     6    38 2   
    16     6    50 1   
    17     6   101 1   
    18     7    38 1   
    19     7    58 1   
    20     7    59 1   
    21     8    44 1   
    22     8    62 1   
    23     8    63 1   
    24     8   102 1   
    25     9    10 1   
    26     9    44 1   
    27     9    64 1   
    28     9    65 1   
    29    10    45 1   
    30    10    66 1   
    31    10    67 1   
    32    11    12 1   
    33    11    45 1   
    34    11    68 1   
    35    11    69 1   
    36    12    46 1   
    37    12    70 1   
    38    12    71 1   
    39    13    14 1   
    40    13    46 1   
    41    13    72 1   
    42    13    73 1   
    43    14    40 1   
    44    14    74 1   
    45    14    75 1   
    46    15    16 1   
    47    15    40 1   
    48    15    47 2   
    49    16    17 1   
    50    16    76 1   
    51    16    77 1   
    52    17    18 1   
    53    17    78 1   
    54    17    79 1   
    55    18    19 1   
    56    18    80 1   
    57    18    81 1   
    58    19    20 1   
    59    19    82 1   
    60    19    83 1   
    61    20    24 1   
    62    20    49 1   
    63    20    84 1   
    64    21    22 1   
    65    21    49 1   
    66    21    85 1   
    67    21    86 1   
    68    22    24 1   
    69    22    41 1   
    70    22    87 1   
    71    23    41 1   
    72    23    42 1   
    73    23    48 2   
    74    24    42 1   
    75    24    88 1   
    76    25    26 ar  
    77    25    30 ar  
    78    25    38 1   
    79    26    27 ar  
    80    26    50 1   
    81    27    28 ar  
    82    27    89 1   
    83    28    29 ar  
    84    28    90 1   
    85    29    30 ar  
    86    29    91 1   
    87    30    92 1   
    88    31    32 ar  
    89    31    36 ar  
    90    32    33 ar  
    91    32    37 1   
    92    33    34 ar  
    93    33    93 1   
    94    34    35 ar  
    95    34    94 1   
    96    35    36 ar  
    97    35    95 1   
    98    36    96 1   
    99    39    97 1   
   100    39   102 1   
   101    40    98 1   
   102    41    99 1   
   103    42   100 1   
   104    56   101 1   
   105    57   101 1   
   106    60   102 1   
   107    61   102 1   
@<TRIPOS>SUBSTRUCTURE
     1 HZD         1 TEMP              0 ****  ****    0 ROOT
