@<TRIPOS>MOLECULE
HZE
   54    57     1     0     0
SMALL
No Charge or Current Charge


@<TRIPOS>ATOM
      1 C1           3.6560    -2.4550    -1.2450 ca         1 HZE       0.095000
      2 C2           4.8810    -1.7970    -0.9660 ca         1 HZE       0.161000
      3 C3           4.8940    -0.4330    -0.6080 ca         1 HZE      -0.157000
      4 C8           2.0250     1.8200    -0.2530 cc         1 HZE      -0.127300
      5 C9           1.4480     0.6070    -0.6510 cd         1 HZE       0.024600
      6 C10          1.2950     3.1020    -0.0460 c          1 HZE       0.642300
      7 C13          0.0220     0.2220    -0.5950 ca         1 HZE      -0.095800
      8 C16         -0.5350    -0.4780    -1.6810 ca         1 HZE      -0.030000
      9 C19         -2.1380     0.0910     0.5430 ca         1 HZE      -0.249000
     10 C20         -0.7850     0.4960     0.5360 ca         1 HZE       0.206100
     11 C22         -4.5530    -2.1330    -1.3090 c6         1 HZE       0.199800
     12 C30         -1.6900     2.7390     2.5630 c3         1 HZE      -0.106100
     13 C4           2.4350    -1.7530    -1.1750 ca         1 HZE      -0.065000
     14 C5           2.4850    -0.3900    -0.8330 ca         1 HZE      -0.102800
     15 C6           3.6660     0.2380    -0.5490 ca         1 HZE      -0.031200
     16 N7           3.4170     1.5520    -0.2030 na         1 HZE      -0.210700
     17 N11          2.0410     4.1210     0.4360 nt         1 HZE      -0.613000
     18 O12          0.1220     3.3010    -0.3140 o          1 HZE      -0.572100
     19 F14          3.6490    -3.7670    -1.5750 f          1 HZE      -0.167000
     20 F15          6.0490    -2.4760    -1.0310 f          1 HZE      -0.163000
     21 C17         -1.8830    -0.8640    -1.6660 ca         1 HZE      -0.213000
     22 C18         -2.6960    -0.5740    -0.5580 ca         1 HZE       0.343000
     23 N21         -4.0540    -0.9580    -0.5210 nh         1 HZE      -0.793400
     24 C23         -5.8930    -2.7140    -0.7420 c6         1 HZE       0.149300
     25 N24         -6.9490    -1.6760    -0.5590 n7         1 HZE      -0.859400
     26 C25         -6.4440    -0.5450     0.2730 c6         1 HZE       0.149300
     27 C26         -5.1140     0.0740    -0.2770 c6         1 HZE       0.199800
     28 O27         -0.1870     1.0570     1.6540 os         1 HZE      -0.358100
     29 C28         -0.8990     1.4420     2.8460 c3         1 HZE       0.180300
     30 C29          0.1630     1.6420     3.9430 c3         1 HZE      -0.106100
     31 H1           5.8280     0.0750    -0.3810 ha         1 HZE       0.135000
     32 H2           0.0720    -0.6950    -2.5570 ha         1 HZE       0.115000
     33 H3          -2.7660     0.2600     1.4080 ha         1 HZE       0.118000
     34 H4          -4.7150    -1.8340    -2.3560 h1         1 HZE       0.045200
     35 H5          -3.8030    -2.9370    -1.3100 h1         1 HZE       0.045200
     36 H6          -2.2380     3.0530     3.4590 hc         1 HZE       0.045533
     37 H7          -1.0130     3.5530     2.2760 hc         1 HZE       0.045533
     38 H8          -2.4190     2.5980     1.7570 hc         1 HZE       0.045533
     39 H9           1.4960    -2.2610    -1.3720 ha         1 HZE       0.143000
     40 H10          4.1400     2.2270     0.0230 hn         1 HZE       0.354000
     41 H11          1.6040     5.0180     0.5830 hn         1 HZE       0.311000
     42 H12          3.0100     3.9790     0.6730 hn         1 HZE       0.311000
     43 H13         -2.2920    -1.3770    -2.5300 ha         1 HZE       0.116000
     44 H14         -6.2630    -3.5010    -1.4150 h1         1 HZE       0.037950
     45 H15         -5.6850    -3.1870     0.2290 h1         1 HZE       0.037950
     46 H16         -7.7610    -2.1010    -0.0920 hn         1 HZE       0.413000
     47 H18         -7.2130     0.2380     0.3340 h1         1 HZE       0.037950
     48 H19         -6.2640    -0.9070     1.2960 h1         1 HZE       0.037950
     49 H20         -4.7660     0.8330     0.4390 h1         1 HZE       0.045200
     50 H21         -5.3350     0.6000    -1.2180 h1         1 HZE       0.045200
     51 H22         -1.5800     0.6470     3.1760 h1         1 HZE       0.042700
     52 H23         -0.3100     1.9430     4.8850 hc         1 HZE       0.045533
     53 H24          0.7120     0.7100     4.1200 hc         1 HZE       0.045533
     54 H25          0.8820     2.4190     3.6540 hc         1 HZE       0.045533
@<TRIPOS>BOND
     1     1     2 ar  
     2     1    13 ar  
     3     1    19 1   
     4     2     3 ar  
     5     2    20 1   
     6     3    15 ar  
     7     3    31 1   
     8     4     5 2   
     9     4     6 1   
    10     4    16 1   
    11     5     7 1   
    12     5    14 1   
    13     6    17 1   
    14     6    18 2   
    15     7     8 ar  
    16     7    10 ar  
    17     8    21 ar  
    18     8    32 1   
    19     9    10 ar  
    20     9    22 ar  
    21     9    33 1   
    22    10    28 1   
    23    11    23 1   
    24    11    24 1   
    25    11    34 1   
    26    11    35 1   
    27    12    29 1   
    28    12    36 1   
    29    12    37 1   
    30    12    38 1   
    31    13    14 ar  
    32    13    39 1   
    33    14    15 ar  
    34    15    16 1   
    35    16    40 1   
    36    17    41 1   
    37    17    42 1   
    38    21    22 ar  
    39    21    43 1   
    40    22    23 1   
    41    23    27 1   
    42    24    25 1   
    43    24    44 1   
    44    24    45 1   
    45    25    26 1   
    46    25    46 1   
    47    26    27 1   
    48    26    47 1   
    49    26    48 1   
    50    27    49 1   
    51    27    50 1   
    52    28    29 1   
    53    29    30 1   
    54    29    51 1   
    55    30    52 1   
    56    30    53 1   
    57    30    54 1   
@<TRIPOS>SUBSTRUCTURE
     1 HZE         1 TEMP              0 ****  ****    0 ROOT
