@<TRIPOS>MOLECULE
HZE
   54    57     1     0     0
SMALL
abcg2


@<TRIPOS>ATOM
      1 C1           3.7890    -2.4250    -1.1670 ca         1 HZE       0.095000
      2 C2           4.9680    -1.6670    -1.0920 ca         1 HZE       0.161000
      3 C3           4.9490    -0.3210    -0.8330 ca         1 HZE      -0.157000
      4 C8           1.9940     1.6550    -0.3020 cc         1 HZE      -0.127300
      5 C9           1.4140     0.4310    -0.5270 cd         1 HZE       0.024600
      6 C10          1.3250     2.9520    -0.0500 c          1 HZE       0.642300
      7 C13         -0.0060     0.0750    -0.4870 ca         1 HZE      -0.095800
      8 C16         -0.5880    -0.6460    -1.5180 ca         1 HZE      -0.030000
      9 C19         -2.1550     0.0240     0.6380 ca         1 HZE      -0.249000
     10 C20         -0.8220     0.4050     0.6130 ca         1 HZE       0.206100
     11 C22         -4.5980    -1.9090    -1.4060 c6         1 HZE       0.199800
     12 C30         -1.7640     2.7930     2.3290 c3         1 HZE      -0.106100
     13 C4           2.5550    -1.8580    -0.9970 ca         1 HZE      -0.065000
     14 C5           2.4960    -0.4800    -0.7480 ca         1 HZE      -0.102800
     15 C6           3.6930     0.2590    -0.6530 ca         1 HZE      -0.031200
     16 N7           3.3600     1.5430    -0.3610 na         1 HZE      -0.210700
     17 N11          1.9890     3.7840     0.7720 nt         1 HZE      -0.613000
     18 O12          0.2690     3.2330    -0.5920 o          1 HZE      -0.572100
     19 F14          3.9080    -3.7390    -1.4090 f          1 HZE      -0.167000
     20 F15          6.1330    -2.3000    -1.2760 f          1 HZE      -0.163000
     21 C17         -1.9250    -1.0190    -1.5120 ca         1 HZE      -0.213000
     22 C18         -2.7370    -0.6870    -0.4240 ca         1 HZE       0.343000
     23 N21         -4.0760    -1.0630    -0.3480 nh         1 HZE      -0.793400
     24 C23         -5.9300    -2.5120    -0.9990 c6         1 HZE       0.149300
     25 N24         -6.8650    -1.4600    -0.6580 n7         1 HZE      -0.859400
     26 C25         -6.3580    -0.6950     0.4630 c6         1 HZE       0.149300
     27 C26         -5.0380    -0.0540     0.0830 c6         1 HZE       0.199800
     28 O27         -0.2080     1.0520     1.6170 os         1 HZE      -0.358100
     29 C28         -0.9340     1.5830     2.7260 c3         1 HZE       0.180300
     30 C29          0.1080     1.9350     3.7700 c3         1 HZE      -0.106100
     31 H1           5.8670     0.2470    -0.7650 ha         1 HZE       0.135000
     32 H2           0.0130    -0.9010    -2.3830 ha         1 HZE       0.115000
     33 H3          -2.7540     0.2430     1.5100 ha         1 HZE       0.118000
     34 H4          -4.7180    -1.3550    -2.3490 h1         1 HZE       0.045200
     35 H5          -3.8970    -2.7240    -1.5920 h1         1 HZE       0.045200
     36 H6          -2.2750     3.1880     3.2070 hc         1 HZE       0.045533
     37 H7          -1.1300     3.5800     1.9200 hc         1 HZE       0.045533
     38 H8          -2.5260     2.5550     1.5860 hc         1 HZE       0.045533
     39 H9           1.6640    -2.4690    -1.0580 ha         1 HZE       0.143000
     40 H10          4.0080     2.3150    -0.3430 hn         1 HZE       0.354000
     41 H11          1.5850     4.6760     1.0080 hn         1 HZE       0.311000
     42 H12          2.7520     3.4680     1.3460 hn         1 HZE       0.311000
     43 H13         -2.3190    -1.5420    -2.3710 ha         1 HZE       0.116000
     44 H14         -6.3210    -3.0910    -1.8380 h1         1 HZE       0.037950
     45 H15         -5.7580    -3.2150    -0.1680 h1         1 HZE       0.037950
     46 H16         -7.7630    -1.8610    -0.4230 hn         1 HZE       0.413000
     47 H18         -7.0680     0.0930     0.7210 h1         1 HZE       0.037950
     48 H19         -6.2050    -1.3100     1.3640 h1         1 HZE       0.037950
     49 H20         -4.6600     0.4860     0.9470 h1         1 HZE       0.045200
     50 H21         -5.2050     0.6830    -0.7170 h1         1 HZE       0.045200
     51 H22         -1.5880     0.8060     3.1420 h1         1 HZE       0.042700
     52 H23         -0.3770     2.3530     4.6510 hc         1 HZE       0.045533
     53 H24          0.6690     1.0540     4.0830 hc         1 HZE       0.045533
     54 H25          0.8110     2.6750     3.3860 hc         1 HZE       0.045533
@<TRIPOS>BOND
     1     1     2 ar  
     2     1    13 ar  
     3     1    19 1   
     4     2     3 ar  
     5     2    20 1   
     6     3    15 ar  
     7     3    31 1   
     8     4     5 2   
     9     4     6 1   
    10     4    16 1   
    11     5     7 1   
    12     5    14 1   
    13     6    17 1   
    14     6    18 2   
    15     7     8 ar  
    16     7    10 ar  
    17     8    21 ar  
    18     8    32 1   
    19     9    10 ar  
    20     9    22 ar  
    21     9    33 1   
    22    10    28 1   
    23    11    23 1   
    24    11    24 1   
    25    11    34 1   
    26    11    35 1   
    27    12    29 1   
    28    12    36 1   
    29    12    37 1   
    30    12    38 1   
    31    13    14 ar  
    32    13    39 1   
    33    14    15 ar  
    34    15    16 1   
    35    16    40 1   
    36    17    41 1   
    37    17    42 1   
    38    21    22 ar  
    39    21    43 1   
    40    22    23 1   
    41    23    27 1   
    42    24    25 1   
    43    24    44 1   
    44    24    45 1   
    45    25    26 1   
    46    25    46 1   
    47    26    27 1   
    48    26    47 1   
    49    26    48 1   
    50    27    49 1   
    51    27    50 1   
    52    28    29 1   
    53    29    30 1   
    54    29    51 1   
    55    30    52 1   
    56    30    53 1   
    57    30    54 1   
@<TRIPOS>SUBSTRUCTURE
     1 HZE         1 TEMP              0 ****  ****    0 ROOT
