@<TRIPOS>MOLECULE
HZF
   57    59     1     0     0
SMALL
abcg2


@<TRIPOS>ATOM
      1 CAE        138.9590    94.9660   -14.8120 c3         1 HZF      -0.085100
      2 CAF        142.3340    97.9950   -15.3320 c3         1 HZF      -0.085100
      3 CAG        140.9960    98.0600   -16.0550 c3         1 HZF      -0.084900
      4 CAH        135.0720    96.3270   -15.1260 c3         1 HZF      -0.181100
      5 CAI        135.8800    96.8830   -13.9790 c          1 HZF       0.600100
      6 CAJ        140.1560    95.7910   -15.2650 c3         1 HZF      -0.084900
      7 CAK        139.8620    97.2800   -15.3880 c3         1 HZF       0.182300
      8 CAL        139.6090    99.9840   -13.2140 c2         1 HZF      -0.282200
      9 CAM        138.8450    98.9660   -14.0050 c6         1 HZF       0.212500
     10 CAN        137.4820    98.6660   -13.3840 c6         1 HZF       0.069700
     11 CAO        136.8220    99.9790   -12.9420 c6         1 HZF       0.072300
     12 CAP        137.6470   100.6820   -11.8740 c6         1 HZF      -0.041200
     13 CAQ        139.0950   100.7640   -12.2650 ce         1 HZF      -0.146400
     14 CAR        139.9770   101.7460   -11.4960 c          1 HZF       0.712200
     15 CAS        131.9380    99.0790   -12.6010 ca         1 HZF      -0.079500
     16 CAT        131.3700    99.3320   -13.8510 ca         1 HZF      -0.098500
     17 CAU        130.0140    99.1380   -14.0640 ca         1 HZF      -0.117000
     18 CAV        129.2000    98.6850   -13.0330 ca         1 HZF      -0.122000
     19 CAW        129.7570    98.4290   -11.7880 ca         1 HZF      -0.117000
     20 CAX        131.1130    98.6230   -11.5720 ca         1 HZF      -0.098500
     21 CAY        134.3410    99.7540   -13.2200 cc         1 HZF      -0.211000
     22 CAZ        133.3670    99.2770   -12.3720 cd         1 HZF       0.234500
     23 NAA        136.6580    97.9370   -14.3120 ns         1 HZF      -0.513900
     24 NAB        135.4650    99.7200   -12.4880 na         1 HZF       0.146800
     25 NAC        133.9670    98.9880   -11.1940 nd         1 HZF      -0.365000
     26 NAD        135.2240    99.2480   -11.2770 nc         1 HZF      -0.163800
     27 OBA        135.8410    96.4130   -12.8530 o          1 HZF      -0.581100
     28 OBB        139.5850    97.7680   -14.0840 os         1 HZF      -0.447000
     29 OBC        139.4200   102.3470   -10.5550 o          1 HZF      -0.713500
     30 OBD        141.1630   101.8570   -11.8600 o          1 HZF      -0.713500
     31 H1         139.2090    93.9050   -14.7790 hc         1 HZF       0.034700
     32 H2         138.6200    95.2550   -13.8170 hc         1 HZF       0.034700
     33 H3         138.1170    95.0840   -15.4970 hc         1 HZF       0.034700
     34 H4         143.0730    98.6180   -15.8370 hc         1 HZF       0.034700
     35 H5         142.2530    98.3520   -14.3050 hc         1 HZF       0.034700
     36 H6         142.7330    96.9810   -15.3010 hc         1 HZF       0.034700
     37 H7         141.1070    97.6780   -17.0740 hc         1 HZF       0.038200
     38 H8         140.6920    99.1060   -16.1660 hc         1 HZF       0.038200
     39 H9         134.4530    95.5010   -14.7860 hc         1 HZF       0.053700
     40 H10        134.4280    97.0940   -15.5570 hc         1 HZF       0.053700
     41 H11        135.7290    95.9690   -15.9200 hc         1 HZF       0.053700
     42 H12        140.4940    95.4360   -16.2430 hc         1 HZF       0.038200
     43 H13        140.9930    95.6350   -14.5790 hc         1 HZF       0.038200
     44 H14        138.9660    97.3940   -16.0170 h1         1 HZF       0.011700
     45 H15        140.6600   100.0820   -13.4650 ha         1 HZF       0.207000
     46 H17        138.6790    99.3750   -15.0150 h1         1 HZF       0.016700
     47 H18        137.6320    98.0420   -12.4990 h1         1 HZF       0.120700
     48 H19        136.7240   100.6360   -13.8100 h1         1 HZF       0.052700
     49 H20        137.2440   101.6820   -11.7080 hc         1 HZF       0.084200
     50 H21        137.5560   100.1560   -10.9210 hc         1 HZF       0.084200
     51 H23        131.9860    99.6810   -14.6710 ha         1 HZF       0.120500
     52 H24        129.5930    99.3400   -15.0400 ha         1 HZF       0.104000
     53 H25        128.1420    98.5330   -13.2010 ha         1 HZF       0.102000
     54 H26        129.1330    98.0750   -10.9770 ha         1 HZF       0.104000
     55 H27        131.5340    98.4190   -10.5960 ha         1 HZF       0.120500
     56 H28        134.3250   100.1050   -14.2380 h4         1 HZF       0.155000
     57 H29        136.6050    98.2850   -15.2580 hn         1 HZF       0.295500
@<TRIPOS>BOND
     1     1     6 1   
     2     1    31 1   
     3     1    32 1   
     4     1    33 1   
     5     2     3 1   
     6     2    34 1   
     7     2    35 1   
     8     2    36 1   
     9     3     7 1   
    10     3    37 1   
    11     3    38 1   
    12     4     5 1   
    13     4    39 1   
    14     4    40 1   
    15     4    41 1   
    16     5    23 1   
    17     5    27 2   
    18     6     7 1   
    19     6    42 1   
    20     6    43 1   
    21     7    28 1   
    22     7    44 1   
    23     8     9 1   
    24     8    13 2   
    25     8    45 1   
    26     9    10 1   
    27     9    28 1   
    28     9    46 1   
    29    10    11 1   
    30    10    23 1   
    31    10    47 1   
    32    11    12 1   
    33    11    24 1   
    34    11    48 1   
    35    12    13 1   
    36    12    49 1   
    37    12    50 1   
    38    13    14 1   
    39    14    29 1   
    40    14    30 1   
    41    15    16 ar  
    42    15    20 ar  
    43    15    22 1   
    44    16    17 ar  
    45    16    51 1   
    46    17    18 ar  
    47    17    52 1   
    48    18    19 ar  
    49    18    53 1   
    50    19    20 ar  
    51    19    54 1   
    52    20    55 1   
    53    21    22 2   
    54    21    24 1   
    55    21    56 1   
    56    22    25 1   
    57    23    57 1   
    58    24    26 1   
    59    25    26 2   
@<TRIPOS>SUBSTRUCTURE
     1 HZF         1 TEMP              0 ****  ****    0 ROOT
