@<TRIPOS>MOLECULE
HZF
   57    59     1     0     0
SMALL
No Charge or Current Charge


@<TRIPOS>ATOM
      1 CAE        140.5690    95.0240   -13.2980 c3         1 HZF      -0.085100
      2 CAF        141.1130    98.1720   -16.7210 c3         1 HZF      -0.085100
      3 CAG        139.8130    97.4050   -16.3890 c3         1 HZF      -0.084900
      4 CAH        135.2650    96.7370   -15.9400 c3         1 HZF      -0.181100
      5 CAI        136.0120    96.9480   -14.6310 c          1 HZF       0.600100
      6 CAJ        140.7580    95.7150   -14.6650 c3         1 HZF      -0.084900
      7 CAK        139.7210    96.8300   -14.9450 c3         1 HZF       0.182300
      8 CAL        139.6840    99.9890   -12.9170 c2         1 HZF      -0.282200
      9 CAM        139.0340    98.9920   -13.8670 c6         1 HZF       0.212500
     10 CAN        137.5940    98.5460   -13.4350 c6         1 HZF       0.069700
     11 CAO        136.8500    99.7120   -12.7220 c6         1 HZF       0.072300
     12 CAP        137.6410   100.1880   -11.4780 c6         1 HZF      -0.041200
     13 CAQ        139.0900   100.5570   -11.8310 ce         1 HZF      -0.146400
     14 CAR        139.8030   101.5570   -10.9350 c          1 HZF       0.712200
     15 CAS        131.8680    99.2090   -12.7080 ca         1 HZF      -0.079500
     16 CAT        131.4160    99.9390   -13.8300 ca         1 HZF      -0.098500
     17 CAU        130.0460   100.0030   -14.1380 ca         1 HZF      -0.117000
     18 CAV        129.1100    99.3390   -13.3310 ca         1 HZF      -0.122000
     19 CAW        129.5450    98.6090   -12.2140 ca         1 HZF      -0.117000
     20 CAX        130.9150    98.5440   -11.9040 ca         1 HZF      -0.098500
     21 CAY        134.3390    99.7280   -13.0660 cc         1 HZF      -0.211000
     22 CAZ        133.3100    99.1400   -12.3860 cd         1 HZF       0.234500
     23 NAA        136.8070    98.0710   -14.6010 ns         1 HZF      -0.513900
     24 NAB        135.4560    99.3450   -12.3660 na         1 HZF       0.146800
     25 NAC        133.8200    98.4410   -11.3110 nd         1 HZF      -0.365000
     26 NAD        135.1200    98.5590   -11.2990 nc         1 HZF      -0.163800
     27 OBA        135.9210    96.1780   -13.6880 o          1 HZF      -0.581100
     28 OBB        139.9500    97.8760   -13.9730 os         1 HZF      -0.447000
     29 OBC        139.2150   102.0020    -9.9600 o          1 HZF      -0.713500
     30 OBD        140.9490   101.8790   -11.2140 o          1 HZF      -0.713500
     31 H1         141.3060    94.2220   -13.1700 hc         1 HZF       0.034700
     32 H2         140.6970    95.7380   -12.4750 hc         1 HZF       0.034700
     33 H3         139.5670    94.5840   -13.2220 hc         1 HZF       0.034700
     34 H4         141.0750    98.5540   -17.7480 hc         1 HZF       0.034700
     35 H5         141.2510    99.0270   -16.0480 hc         1 HZF       0.034700
     36 H6         141.9900    97.5200   -16.6380 hc         1 HZF       0.034700
     37 H7         139.7080    96.5760   -17.1000 hc         1 HZF       0.038200
     38 H8         138.9550    98.0600   -16.5780 hc         1 HZF       0.038200
     39 H9         134.6530    95.8280   -15.9360 hc         1 HZF       0.053700
     40 H10        134.6640    97.6280   -16.1540 hc         1 HZF       0.053700
     41 H11        135.9840    96.7370   -16.7670 hc         1 HZF       0.053700
     42 H12        140.6860    94.9550   -15.4520 hc         1 HZF       0.038200
     43 H13        141.7730    96.1280   -14.7160 hc         1 HZF       0.038200
     44 H14        138.7290    96.3840   -14.8120 h1         1 HZF       0.011700
     45 H15        140.7130   100.2420   -13.1740 ha         1 HZF       0.207000
     46 H17        138.9670    99.4910   -14.8430 h1         1 HZF       0.016700
     47 H18        137.7020    97.7210   -12.7150 h1         1 HZF       0.120700
     48 H19        136.7950   100.5550   -13.4240 h1         1 HZF       0.052700
     49 H20        137.1180   101.0480   -11.0390 hc         1 HZF       0.084200
     50 H21        137.6550    99.4050   -10.7060 hc         1 HZF       0.084200
     51 H23        132.1220   100.4610   -14.4710 ha         1 HZF       0.120500
     52 H24        129.7110   100.5690   -15.0050 ha         1 HZF       0.104000
     53 H25        128.0500    99.3890   -13.5710 ha         1 HZF       0.102000
     54 H26        128.8210    98.0940   -11.5860 ha         1 HZF       0.104000
     55 H27        131.2300    97.9730   -11.0330 ha         1 HZF       0.120500
     56 H28        134.3690   100.3490   -13.9500 h4         1 HZF       0.155000
     57 H29        136.8160    98.6330   -15.4440 hn         1 HZF       0.295500
@<TRIPOS>BOND
     1     1     6 1   
     2     1    31 1   
     3     1    32 1   
     4     1    33 1   
     5     2     3 1   
     6     2    34 1   
     7     2    35 1   
     8     2    36 1   
     9     3     7 1   
    10     3    37 1   
    11     3    38 1   
    12     4     5 1   
    13     4    39 1   
    14     4    40 1   
    15     4    41 1   
    16     5    23 1   
    17     5    27 2   
    18     6     7 1   
    19     6    42 1   
    20     6    43 1   
    21     7    28 1   
    22     7    44 1   
    23     8     9 1   
    24     8    13 2   
    25     8    45 1   
    26     9    10 1   
    27     9    28 1   
    28     9    46 1   
    29    10    11 1   
    30    10    23 1   
    31    10    47 1   
    32    11    12 1   
    33    11    24 1   
    34    11    48 1   
    35    12    13 1   
    36    12    49 1   
    37    12    50 1   
    38    13    14 1   
    39    14    29 1   
    40    14    30 1   
    41    15    16 ar  
    42    15    20 ar  
    43    15    22 1   
    44    16    17 ar  
    45    16    51 1   
    46    17    18 ar  
    47    17    52 1   
    48    18    19 ar  
    49    18    53 1   
    50    19    20 ar  
    51    19    54 1   
    52    20    55 1   
    53    21    22 2   
    54    21    24 1   
    55    21    56 1   
    56    22    25 1   
    57    23    57 1   
    58    24    26 1   
    59    25    26 2   
@<TRIPOS>SUBSTRUCTURE
     1 HZF         1 TEMP              0 ****  ****    0 ROOT
