@<TRIPOS>MOLECULE
HZG
   45    48     1     0     0
SMALL
abcg2


@<TRIPOS>ATOM
      1 C10         -2.8050    -2.1170    -0.8330 ca         1 HZG       0.042700
      2 C12         -4.4210    -2.0070     0.9390 c3         1 HZG       0.006900
      3 C01          0.0840    -3.4060     0.9080 c3         1 HZG      -0.204100
      4 C02          0.4370    -1.9870     0.6110 c          1 HZG       0.558100
      5 C04          1.3350    -1.7920    -0.6060 c3         1 HZG      -0.092400
      6 C06          1.0360     0.4720    -1.4860 cc         1 HZG       0.127200
      7 C07         -0.1990     0.1870    -2.2810 c3         1 HZG      -0.090400
      8 C08         -1.3600    -0.3180    -1.4600 ca         1 HZG       0.044700
      9 C09         -1.7910    -1.6070    -1.6340 ca         1 HZG      -0.178000
     10 C13         -3.0430    -0.0740     0.2930 ca         1 HZG      -0.026000
     11 C14         -3.7000     0.6980     1.2640 ca         1 HZG      -0.121000
     12 C15         -3.3610     2.0160     1.4220 ca         1 HZG      -0.007000
     13 C16         -2.3720     2.6070     0.6190 ca         1 HZG      -0.054000
     14 C17         -1.7190     1.8620    -0.3230 ca         1 HZG      -0.083000
     15 C18         -2.0230     0.4970    -0.5090 ca         1 HZG      -0.051000
     16 C20          2.9910     1.4750    -0.4160 ca         1 HZG      -0.230000
     17 C21          4.0460     2.2090     0.1120 ca         1 HZG      -0.033000
     18 C22          4.9140     1.5510     0.9590 ca         1 HZG      -0.052000
     19 C23          4.7350     0.1980     1.2710 ca         1 HZG      -0.033000
     20 C24          3.6900    -0.5330     0.7430 ca         1 HZG      -0.084000
     21 C25          2.8170     0.1290    -0.1140 ca         1 HZG      -0.054200
     22 N05          1.7100    -0.4020    -0.7670 na         1 HZG      -0.034500
     23 N11         -3.3850    -1.3920     0.1030 na         1 HZG       0.079300
     24 O03          0.0700    -1.0360     1.2530 o          1 HZG      -0.490100
     25 S19          1.7420     2.0100    -1.4800 ss         1 HZG       0.416800
     26 H1          -3.1390    -3.1380    -0.9440 h4         1 HZG       0.189000
     27 H2          -5.3670    -1.4920     0.7890 h1         1 HZG       0.102367
     28 H3          -4.5300    -3.0460     0.6500 h1         1 HZG       0.102367
     29 H4          -4.1300    -1.9540     1.9840 h1         1 HZG       0.102367
     30 H5          -0.2210    -3.9370     0.0050 hc         1 HZG       0.087033
     31 H6           0.9670    -3.9240     1.2900 hc         1 HZG       0.087033
     32 H7          -0.7060    -3.4650     1.6530 hc         1 HZG       0.087033
     33 H8           2.2390    -2.3970    -0.5210 h1         1 HZG       0.114700
     34 H9           0.8460    -2.1500    -1.5110 h1         1 HZG       0.114700
     35 H10         -0.4840     1.0930    -2.8190 hc         1 HZG       0.116700
     36 H11          0.0510    -0.5460    -3.0530 hc         1 HZG       0.116700
     37 H12         -1.3550    -2.2620    -2.3740 ha         1 HZG       0.169000
     38 H13         -4.4750     0.2730     1.8830 ha         1 HZG       0.158000
     39 H14         -3.8710     2.6090     2.1680 ha         1 HZG       0.167000
     40 H15         -2.1310     3.6530     0.7430 ha         1 HZG       0.162000
     41 H16         -0.9810     2.3440    -0.9460 ha         1 HZG       0.126000
     42 H17          4.1770     3.2550    -0.1310 ha         1 HZG       0.163000
     43 H18          5.7450     2.0910     1.3920 ha         1 HZG       0.166000
     44 H19          5.4290    -0.2890     1.9410 ha         1 HZG       0.163000
     45 H20          3.5680    -1.5750     1.0000 ha         1 HZG       0.146000
@<TRIPOS>BOND
     1     1     9 ar  
     2     1    23 2   
     3     1    26 1   
     4     2    23 1   
     5     2    27 1   
     6     2    28 1   
     7     2    29 1   
     8     3     4 1   
     9     3    30 1   
    10     3    31 1   
    11     3    32 1   
    12     4     5 1   
    13     4    24 2   
    14     5    22 1   
    15     5    33 1   
    16     5    34 1   
    17     6     7 1   
    18     6    22 2   
    19     6    25 1   
    20     7     8 1   
    21     7    35 1   
    22     7    36 1   
    23     8     9 ar  
    24     8    15 ar  
    25     9    37 1   
    26    10    11 ar  
    27    10    15 ar  
    28    10    23 1   
    29    11    12 ar  
    30    11    38 1   
    31    12    13 ar  
    32    12    39 1   
    33    13    14 ar  
    34    13    40 1   
    35    14    15 ar  
    36    14    41 1   
    37    16    17 ar  
    38    16    21 ar  
    39    16    25 1   
    40    17    18 ar  
    41    17    42 1   
    42    18    19 ar  
    43    18    43 1   
    44    19    20 ar  
    45    19    44 1   
    46    20    21 ar  
    47    20    45 1   
    48    21    22 1   
@<TRIPOS>SUBSTRUCTURE
     1 HZG         1 TEMP              0 ****  ****    0 ROOT
