@<TRIPOS>MOLECULE
HZG
   45    48     1     0     0
SMALL
No Charge or Current Charge


@<TRIPOS>ATOM
      1 C10         -2.9270    -2.1300    -1.2160 ca         1 HZG       0.042700
      2 C12         -4.3020    -2.2830     0.8360 c3         1 HZG       0.006900
      3 C01         -0.2780    -3.1740     1.1670 c3         1 HZG      -0.204100
      4 C02          0.3570    -1.8140     0.8990 c          1 HZG       0.558100
      5 C04          1.2260    -1.7150    -0.3640 c3         1 HZG      -0.092400
      6 C06          1.0730     0.5380    -1.6210 cc         1 HZG       0.127200
      7 C07         -0.1990     0.2730    -2.4060 c3         1 HZG      -0.090400
      8 C08         -1.3700    -0.2890    -1.5900 ca         1 HZG       0.044700
      9 C09         -1.8770    -1.5530    -1.9440 ca         1 HZG      -0.178000
     10 C13         -3.0330    -0.1920     0.2250 ca         1 HZG      -0.026000
     11 C14         -3.6510     0.5360     1.2730 ca         1 HZG      -0.121000
     12 C15         -3.2310     1.8370     1.5910 ca         1 HZG      -0.007000
     13 C16         -2.1960     2.4340     0.8620 ca         1 HZG      -0.054000
     14 C17         -1.5800     1.7350    -0.1860 ca         1 HZG      -0.083000
     15 C18         -1.9830     0.4190    -0.5200 ca         1 HZG      -0.051000
     16 C20          3.1340     1.4540    -0.6310 ca         1 HZG      -0.230000
     17 C21          4.2560     2.1670    -0.1740 ca         1 HZG      -0.033000
     18 C22          5.0620     1.5930     0.8270 ca         1 HZG      -0.052000
     19 C23          4.7380     0.3270     1.3570 ca         1 HZG      -0.033000
     20 C24          3.6090    -0.3730     0.8860 ca         1 HZG      -0.084000
     21 C25          2.8120     0.2070    -0.1230 ca         1 HZG      -0.054200
     22 N05          1.6680    -0.3390    -0.6980 na         1 HZG      -0.034500
     23 N11         -3.4430    -1.5050    -0.0820 na         1 HZG       0.079300
     24 O03          0.1730    -0.8710     1.6560 o          1 HZG      -0.490100
     25 S19          2.0010     2.0380    -1.8720 ss         1 HZG       0.416800
     26 H1          -3.3390    -3.1010    -1.4960 h4         1 HZG       0.189000
     27 H2          -5.3240    -1.8860     0.8100 h1         1 HZG       0.102367
     28 H3          -4.3270    -3.3390     0.5420 h1         1 HZG       0.102367
     29 H4          -3.9090    -2.2170     1.8580 h1         1 HZG       0.102367
     30 H5          -0.7830    -3.5270     0.2610 hc         1 HZG       0.087033
     31 H6           0.5210    -3.9130     1.2890 hc         1 HZG       0.087033
     32 H7          -0.9460    -3.1620     2.0350 hc         1 HZG       0.087033
     33 H8           2.0980    -2.3650    -0.2280 h1         1 HZG       0.114700
     34 H9           0.6580    -2.1310    -1.2010 h1         1 HZG       0.114700
     35 H10         -0.5250     1.1960    -2.9010 hc         1 HZG       0.116700
     36 H11          0.0500    -0.4050    -3.2310 hc         1 HZG       0.116700
     37 H12         -1.4670    -2.0960    -2.7940 ha         1 HZG       0.169000
     38 H13         -4.4640     0.1110     1.8560 ha         1 HZG       0.158000
     39 H14         -3.7130     2.3840     2.3990 ha         1 HZG       0.167000
     40 H15         -1.8770     3.4460     1.1050 ha         1 HZG       0.162000
     41 H16         -0.8010     2.2470    -0.7390 ha         1 HZG       0.126000
     42 H17          4.5010     3.1470    -0.5800 ha         1 HZG       0.163000
     43 H18          5.9350     2.1280     1.1950 ha         1 HZG       0.166000
     44 H19          5.3610    -0.1100     2.1350 ha         1 HZG       0.163000
     45 H20          3.3710    -1.3430     1.3150 ha         1 HZG       0.146000
@<TRIPOS>BOND
     1     1     9 ar  
     2     1    23 2   
     3     1    26 1   
     4     2    23 1   
     5     2    27 1   
     6     2    28 1   
     7     2    29 1   
     8     3     4 1   
     9     3    30 1   
    10     3    31 1   
    11     3    32 1   
    12     4     5 1   
    13     4    24 2   
    14     5    22 1   
    15     5    33 1   
    16     5    34 1   
    17     6     7 1   
    18     6    22 2   
    19     6    25 1   
    20     7     8 1   
    21     7    35 1   
    22     7    36 1   
    23     8     9 ar  
    24     8    15 ar  
    25     9    37 1   
    26    10    11 ar  
    27    10    15 ar  
    28    10    23 1   
    29    11    12 ar  
    30    11    38 1   
    31    12    13 ar  
    32    12    39 1   
    33    13    14 ar  
    34    13    40 1   
    35    14    15 ar  
    36    14    41 1   
    37    16    17 ar  
    38    16    21 ar  
    39    16    25 1   
    40    17    18 ar  
    41    17    42 1   
    42    18    19 ar  
    43    18    43 1   
    44    19    20 ar  
    45    19    44 1   
    46    20    21 ar  
    47    20    45 1   
    48    21    22 1   
@<TRIPOS>SUBSTRUCTURE
     1 HZG         1 TEMP              0 ****  ****    0 ROOT
