@<TRIPOS>MOLECULE
HZH
   27    27     1     0     0
SMALL
No Charge or Current Charge


@<TRIPOS>ATOM
      1 F2          10.0850    26.0020    31.6840 f          1 HZH      -0.102333
      2 C11          9.6200    24.9390    30.9860 c3         1 HZH       0.180000
      3 F1          10.6940    24.2040    30.6110 f          1 HZH      -0.102333
      4 F3           9.0470    25.4160    29.8550 f          1 HZH      -0.102333
      5 C10          8.6120    24.1130    31.8230 c          1 HZH       0.522100
      6 O1           8.8190    22.9460    32.1430 o          1 HZH      -0.419100
      7 C9           7.3210    24.8420    32.2480 c3         1 HZH      -0.062400
      8 S            6.9660    24.7150    34.0720 ss         1 HZH      -0.365000
      9 C8           8.4060    25.6560    34.7620 c3         1 HZH       0.062600
     10 C7           8.3950    25.6400    36.3040 c3         1 HZH      -0.016100
     11 C6           8.6050    24.2450    36.8850 ca         1 HZH      -0.088300
     12 C4           9.8700    23.6300    36.8110 ca         1 HZH      -0.099000
     13 C2          10.0670    22.3440    37.3450 ca         1 HZH      -0.107500
     14 C1           9.0000    21.6660    37.9570 ca         1 HZH      -0.106000
     15 C3           7.7360    22.2740    38.0360 ca         1 HZH      -0.107500
     16 C5           7.5390    23.5600    37.5020 ca         1 HZH      -0.099000
     17 H9           7.4010    25.9000    31.9670 h1         1 HZH       0.105200
     18 H9A          6.4920    24.4040    31.6780 h1         1 HZH       0.105200
     19 H8           9.3420    25.2140    34.3970 h1         1 HZH       0.063700
     20 H8A          8.3530    26.6930    34.4060 h1         1 HZH       0.063700
     21 H7           9.1880    26.3080    36.6630 hc         1 HZH       0.057200
     22 H7A          7.4520    26.0730    36.6580 hc         1 HZH       0.057200
     23 H4          10.7030    24.1480    36.3400 ha         1 HZH       0.110500
     24 H2          11.0460    21.8750    37.2840 ha         1 HZH       0.113000
     25 H1           9.1520    20.6710    38.3700 ha         1 HZH       0.112000
     26 H3           6.9080    21.7500    38.5090 ha         1 HZH       0.113000
     27 H5           6.5550    24.0210    37.5650 ha         1 HZH       0.110500
@<TRIPOS>BOND
     1     1     2 1   
     2     2     3 1   
     3     2     4 1   
     4     2     5 1   
     5     5     6 2   
     6     5     7 1   
     7     7     8 1   
     8     7    17 1   
     9     7    18 1   
    10     8     9 1   
    11     9    10 1   
    12     9    19 1   
    13     9    20 1   
    14    10    11 1   
    15    10    21 1   
    16    10    22 1   
    17    11    12 ar  
    18    11    16 ar  
    19    12    13 ar  
    20    12    23 1   
    21    13    14 ar  
    22    13    24 1   
    23    14    15 ar  
    24    14    25 1   
    25    15    16 ar  
    26    15    26 1   
    27    16    27 1   
@<TRIPOS>SUBSTRUCTURE
     1 HZH         1 TEMP              0 ****  ****    0 ROOT
