@<TRIPOS>MOLECULE
HZH
   27    27     1     0     0
SMALL
abcg2


@<TRIPOS>ATOM
      1 F2           9.6530    26.2950    30.4690 f          1 HZH      -0.102333
      2 C11          9.3180    24.9950    30.3550 c3         1 HZH       0.180000
      3 F1          10.3420    24.3490    29.7960 f          1 HZH      -0.102333
      4 F3           8.2660    24.9140    29.5210 f          1 HZH      -0.102333
      5 C10          8.9670    24.4170    31.7630 c          1 HZH       0.522100
      6 O1           9.7270    23.6410    32.2700 o          1 HZH      -0.419100
      7 C9           7.6750    24.9320    32.3430 c3         1 HZH      -0.062400
      8 S            7.3650    24.4840    34.0630 ss         1 HZH      -0.365000
      9 C8           8.6020    25.5520    34.8860 c3         1 HZH       0.062600
     10 C7           8.3890    25.5470    36.4010 c3         1 HZH      -0.016100
     11 C6           8.5500    24.1840    37.0270 ca         1 HZH      -0.088300
     12 C4           9.8060    23.5760    37.0920 ca         1 HZH      -0.099000
     13 C2           9.9570    22.3090    37.6440 ca         1 HZH      -0.107500
     14 C1           8.8490    21.6270    38.1410 ca         1 HZH      -0.106000
     15 C3           7.5940    22.2230    38.0860 ca         1 HZH      -0.107500
     16 C5           7.4490    23.4930    37.5320 ca         1 HZH      -0.099000
     17 H9           7.6290    26.0160    32.2060 h1         1 HZH       0.105200
     18 H9A          6.8570    24.5140    31.7480 h1         1 HZH       0.105200
     19 H8           9.6000    25.1890    34.6390 h1         1 HZH       0.063700
     20 H8A          8.4860    26.5620    34.4930 h1         1 HZH       0.063700
     21 H7           9.1200    26.2380    36.8290 hc         1 HZH       0.057200
     22 H7A          7.3980    25.9420    36.6300 hc         1 HZH       0.057200
     23 H4          10.6740    24.1010    36.7080 ha         1 HZH       0.110500
     24 H2          10.9390    21.8540    37.6880 ha         1 HZH       0.113000
     25 H1           8.9650    20.6400    38.5720 ha         1 HZH       0.112000
     26 H3           6.7270    21.7030    38.4720 ha         1 HZH       0.113000
     27 H5           6.4690    23.9530    37.4890 ha         1 HZH       0.110500
@<TRIPOS>BOND
     1     1     2 1   
     2     2     3 1   
     3     2     4 1   
     4     2     5 1   
     5     5     6 2   
     6     5     7 1   
     7     7     8 1   
     8     7    17 1   
     9     7    18 1   
    10     8     9 1   
    11     9    10 1   
    12     9    19 1   
    13     9    20 1   
    14    10    11 1   
    15    10    21 1   
    16    10    22 1   
    17    11    12 ar  
    18    11    16 ar  
    19    12    13 ar  
    20    12    23 1   
    21    13    14 ar  
    22    13    24 1   
    23    14    15 ar  
    24    14    25 1   
    25    15    16 ar  
    26    15    26 1   
    27    16    27 1   
@<TRIPOS>SUBSTRUCTURE
     1 HZH         1 TEMP              0 ****  ****    0 ROOT
