@<TRIPOS>MOLECULE
HZI
   48    51     1     0     0
SMALL
abcg2


@<TRIPOS>ATOM
      1 C1          19.4290    29.0370    22.4120 c6         1 HZI       0.216600
      2 C5          21.0100    28.6310    20.7200 c6         1 HZI       0.135300
      3 C6          22.2590    29.2340    20.1110 c3         1 HZI       0.171600
      4 C4          19.9210    28.3890    19.6600 c6         1 HZI       0.144300
      5 C3          18.6550    27.8830    20.3370 c6         1 HZI       0.176300
      6 C2          18.2470    28.8360    21.4530 c6         1 HZI       0.100300
      7 C12         19.1060    29.9700    23.5470 ca         1 HZI      -0.225300
      8 C13         18.9470    31.3550    23.3530 ca         1 HZI       0.269100
      9 C15         18.6660    32.2240    24.4040 ca         1 HZI      -0.315000
     10 C16         18.5240    31.7050    25.6750 ca         1 HZI       0.266100
     11 C18         18.0900    32.1510    27.9330 ca         1 HZI       0.183100
     12 C19         17.8190    33.1290    28.8820 ca         1 HZI      -0.172000
     13 C20         17.6360    32.7610    30.2010 ca         1 HZI       0.192100
     14 C22         17.7210    31.3980    30.5760 ca         1 HZI       0.010100
     15 C24         17.9940    30.4490    29.6260 ca         1 HZI      -0.073000
     16 C25         18.1860    30.8090    28.2830 ca         1 HZI      -0.232600
     17 C26         18.4830    29.8200    27.2650 c          1 HZI       0.633300
     18 C28         18.6510    30.3370    25.9280 ca         1 HZI      -0.396600
     19 C29         18.9450    29.4770    24.8390 ca         1 HZI       0.302100
     20 O5          20.5510    29.5220    21.7120 os         1 HZI      -0.424000
     21 O6          23.2490    29.3420    21.1050 oh         1 HZI      -0.702000
     22 O4          20.3320    27.4260    18.7200 oh         1 HZI      -0.701000
     23 O3          17.6470    27.7590    19.3670 oh         1 HZI      -0.650000
     24 O2          17.1490    28.2610    22.1210 oh         1 HZI      -0.719000
     25 O14         19.0680    31.8200    22.1080 oh         1 HZI      -0.503100
     26 O17         18.2540    32.5760    26.6610 os         1 HZI      -0.208200
     27 O21         17.3760    33.7090    31.1030 oh         1 HZI      -0.519100
     28 O23         17.5180    31.1520    31.8870 oh         1 HZI      -0.558100
     29 O27         18.5870    28.6120    27.5250 o          1 HZI      -0.595100
     30 O30         19.0740    28.1750    25.0620 oh         1 HZI      -0.536100
     31 H1          19.6630    28.0480    22.8320 h1         1 HZI       0.069700
     32 H4          21.2650    27.6580    21.1730 h1         1 HZI       0.063700
     33 H61         22.5900    28.5920    19.2870 h1         1 HZI       0.022700
     34 H62         22.0050    30.2120    19.6770 h1         1 HZI       0.022700
     35 H6          19.6920    29.3500    19.1740 h1         1 HZI       0.049700
     36 H3          18.8850    26.9040    20.7940 h1         1 HZI       0.057700
     37 H2          17.9750    29.7970    20.9980 h1         1 HZI       0.055700
     38 H8          18.5570    33.2880    24.2340 ha         1 HZI       0.139000
     39 H9          17.7500    34.1700    28.5940 ha         1 HZI       0.154000
     40 H10         18.0630    29.4050    29.9090 ha         1 HZI       0.141000
     41 HO6         24.0450    29.6940    20.6960 ho         1 HZI       0.501000
     42 HO4         20.7930    27.8660    18.0010 ho         1 HZI       0.504000
     43 HO3         16.8440    27.4710    19.8120 ho         1 HZI       0.458000
     44 HO2         16.6810    28.9530    22.5980 ho         1 HZI       0.511000
     45 H16         17.2670    33.3270    31.9840 ho         1 HZI       0.495000
     46 H17         17.5830    30.2090    32.0830 ho         1 HZI       0.484000
     47 H18         18.9280    28.0240    26.0320 ho         1 HZI       0.528000
     48 H11         18.9220    32.7740    22.0810 ho         1 HZI       0.473000
@<TRIPOS>BOND
     1     1     6 1   
     2     1     7 1   
     3     1    20 1   
     4     1    31 1   
     5     2     3 1   
     6     2     4 1   
     7     2    20 1   
     8     2    32 1   
     9     3    21 1   
    10     3    33 1   
    11     3    34 1   
    12     4     5 1   
    13     4    22 1   
    14     4    35 1   
    15     5     6 1   
    16     5    23 1   
    17     5    36 1   
    18     6    24 1   
    19     6    37 1   
    20     7     8 ar  
    21     7    19 ar  
    22     8     9 ar  
    23     8    25 1   
    24     9    10 ar  
    25     9    38 1   
    26    10    18 ar  
    27    10    26 1   
    28    11    12 ar  
    29    11    16 ar  
    30    11    26 1   
    31    12    13 ar  
    32    12    39 1   
    33    13    14 ar  
    34    13    27 1   
    35    14    15 ar  
    36    14    28 1   
    37    15    16 ar  
    38    15    40 1   
    39    16    17 1   
    40    17    18 1   
    41    17    29 2   
    42    18    19 ar  
    43    19    30 1   
    44    21    41 1   
    45    22    42 1   
    46    23    43 1   
    47    24    44 1   
    48    25    48 1   
    49    27    45 1   
    50    28    46 1   
    51    30    47 1   
@<TRIPOS>SUBSTRUCTURE
     1 HZI         1 TEMP              0 ****  ****    0 ROOT
