@<TRIPOS>MOLECULE
HZI
   48    51     1     0     0
SMALL
No Charge or Current Charge


@<TRIPOS>ATOM
      1 C1          19.3770    29.0000    22.3610 c6         1 HZI       0.216600
      2 C5          21.1150    28.5590    20.7040 c6         1 HZI       0.135300
      3 C6          22.4770    29.1330    20.1910 c3         1 HZI       0.171600
      4 C4          20.0630    28.4100    19.5600 c6         1 HZI       0.144300
      5 C3          18.7150    27.9150    20.1640 c6         1 HZI       0.176300
      6 C2          18.2390    28.8740    21.2910 c6         1 HZI       0.100300
      7 C12         19.0370    29.9610    23.5260 ca         1 HZI      -0.225300
      8 C13         18.8390    31.3410    23.3060 ca         1 HZI       0.269100
      9 C15         18.5410    32.1920    24.3720 ca         1 HZI      -0.315000
     10 C16         18.4380    31.6920    25.6700 ca         1 HZI       0.266100
     11 C18         18.0170    32.1950    27.9930 ca         1 HZI       0.183100
     12 C19         17.7130    33.1720    28.9520 ca         1 HZI      -0.172000
     13 C20         17.5800    32.8110    30.2990 ca         1 HZI       0.192100
     14 C22         17.7480    31.4700    30.6980 ca         1 HZI       0.010100
     15 C24         18.0520    30.4900    29.7350 ca         1 HZI      -0.073000
     16 C25         18.1870    30.8550    28.3750 ca         1 HZI      -0.232600
     17 C26         18.5090    29.8440    27.3260 c          1 HZI       0.633300
     18 C28         18.6310    30.3280    25.9190 ca         1 HZI      -0.396600
     19 C29         18.9310    29.4690    24.8450 ca         1 HZI       0.302100
     20 O5          20.6020    29.4480    21.7340 os         1 HZI      -0.424000
     21 O6          23.4490    29.3180    21.2390 oh         1 HZI      -0.702000
     22 O4          20.5060    27.5000    18.5350 oh         1 HZI      -0.701000
     23 O3          17.7040    27.8120    19.1470 oh         1 HZI      -0.650000
     24 O2          17.0000    28.3930    21.8630 oh         1 HZI      -0.719000
     25 O14         18.9250    31.8850    22.0620 oh         1 HZI      -0.503100
     26 O17         18.1430    32.5740    26.6810 os         1 HZI      -0.208200
     27 O21         17.2850    33.7540    31.2360 oh         1 HZI      -0.519100
     28 O23         17.6140    31.1290    32.0220 oh         1 HZI      -0.558100
     29 O27         18.6690    28.6600    27.6010 o          1 HZI      -0.595100
     30 O30         19.1110    28.1450    25.0930 oh         1 HZI      -0.536100
     31 H1          19.5690    27.9920    22.7540 h1         1 HZI       0.069700
     32 H4          21.3070    27.5730    21.1520 h1         1 HZI       0.063700
     33 H61         22.8780    28.4470    19.4330 h1         1 HZI       0.022700
     34 H62         22.2790    30.0910    19.6910 h1         1 HZI       0.022700
     35 H6          19.8960    29.4060    19.1210 h1         1 HZI       0.049700
     36 H3          18.8850    26.9250    20.6140 h1         1 HZI       0.057700
     37 H2          18.0740    29.8620    20.8380 h1         1 HZI       0.055700
     38 H8          18.3850    33.2540    24.2050 ha         1 HZI       0.139000
     39 H9          17.5830    34.2070    28.6500 ha         1 HZI       0.154000
     40 H10         18.1840    29.4520    30.0360 ha         1 HZI       0.141000
     41 HO6         24.2370    29.7420    20.8260 ho         1 HZI       0.501000
     42 HO4         19.6900    27.2620    18.0340 ho         1 HZI       0.504000
     43 HO3         16.8550    27.8140    19.6460 ho         1 HZI       0.458000
     44 HO2         16.7600    29.0110    22.5930 ho         1 HZI       0.511000
     45 H16         17.2440    33.2700    32.0910 ho         1 HZI       0.495000
     46 H17         17.7620    30.1620    32.1280 ho         1 HZI       0.484000
     47 H18         18.9910    28.0420    26.0730 ho         1 HZI       0.528000
     48 H11         18.8060    32.8520    22.1460 ho         1 HZI       0.473000
@<TRIPOS>BOND
     1     1     6 1   
     2     1     7 1   
     3     1    20 1   
     4     1    31 1   
     5     2     3 1   
     6     2     4 1   
     7     2    20 1   
     8     2    32 1   
     9     3    21 1   
    10     3    33 1   
    11     3    34 1   
    12     4     5 1   
    13     4    22 1   
    14     4    35 1   
    15     5     6 1   
    16     5    23 1   
    17     5    36 1   
    18     6    24 1   
    19     6    37 1   
    20     7     8 ar  
    21     7    19 ar  
    22     8     9 ar  
    23     8    25 1   
    24     9    10 ar  
    25     9    38 1   
    26    10    18 ar  
    27    10    26 1   
    28    11    12 ar  
    29    11    16 ar  
    30    11    26 1   
    31    12    13 ar  
    32    12    39 1   
    33    13    14 ar  
    34    13    27 1   
    35    14    15 ar  
    36    14    28 1   
    37    15    16 ar  
    38    15    40 1   
    39    16    17 1   
    40    17    18 1   
    41    17    29 2   
    42    18    19 ar  
    43    19    30 1   
    44    21    41 1   
    45    22    42 1   
    46    23    43 1   
    47    24    44 1   
    48    25    48 1   
    49    27    45 1   
    50    28    46 1   
    51    30    47 1   
@<TRIPOS>SUBSTRUCTURE
     1 HZI         1 TEMP              0 ****  ****    0 ROOT
