@<TRIPOS>MOLECULE
HZJ
   50    53     1     0     0
SMALL
bcc


@<TRIPOS>ATOM
      1 C13         -0.5130     0.8400     0.3020 ca         1 HZJ      -0.061300
      2 C15          0.1550     1.9780     0.8200 ca         1 HZJ      -0.115000
      3 C17         -2.6970    -0.4340    -0.0110 c5         1 HZJ      -0.050000
      4 C20         -2.4390     1.7290    -1.1200 c5         1 HZJ      -0.065400
      5 C21         -3.7260     1.0510    -1.6350 c5         1 HZJ      -0.092400
      6 C22         -4.0430    -0.0530    -0.6340 c5         1 HZJ       0.195100
      7 C01          3.7500    -1.4740     0.1830 ca         1 HZJ      -0.123000
      8 C02          4.3700    -0.3230     0.6970 ca         1 HZJ       0.120100
      9 C03          3.6590     0.8120     0.9580 ca         1 HZJ      -0.112000
     10 C04          2.2670     0.8360     0.7230 ca         1 HZJ      -0.030000
     11 C05          1.6150    -0.3120     0.2030 ca         1 HZJ      -0.028000
     12 C06          2.4020    -1.4600    -0.0550 ca         1 HZJ      -0.107000
     13 C12          1.5020     1.9880     1.0170 ca         1 HZJ      -0.116000
     14 C14          0.2040    -0.2890    -0.0230 ca         1 HZJ      -0.059300
     15 C16         -2.0040     0.9270     0.1320 c5         1 HZJ      -0.013400
     16 C18         -1.9070    -1.2570    -1.0340 c6         1 HZJ      -0.071400
     17 C19         -0.4750    -1.5100    -0.5860 c6         1 HZJ      -0.029100
     18 C23         -2.8250    -1.2010     1.2990 c3         1 HZJ      -0.079100
     19 N11          6.5330     1.4870    -0.4820 n8         1 HZJ      -0.956700
     20 N28         -6.6380    -1.3400     0.9430 n8         1 HZJ      -0.939700
     21 O07          5.7180    -0.3710     1.0130 os         1 HZJ      -0.443800
     22 O09          6.4890    -0.8400    -1.3230 o          1 HZJ      -0.616800
     23 O10          8.0530    -0.3010     0.5630 o          1 HZJ      -0.616800
     24 O24         -4.8760     0.5020     0.4190 os         1 HZJ      -0.570500
     25 O26         -6.9530     0.2580    -0.9160 o          1 HZJ      -0.613800
     26 O27         -6.9420     1.0720     1.4630 o          1 HZJ      -0.613800
     27 S08          6.8150    -0.0780    -0.1410 s6         1 HZJ       1.538400
     28 S25         -6.4410     0.1960     0.4350 s6         1 HZJ       1.548400
     29 H1          -0.4300     2.8550     1.0710 ha         1 HZJ       0.135000
     30 H2          -1.6610     1.7050    -1.8840 hc         1 HZJ       0.052200
     31 H3          -2.6020     2.7770    -0.8730 hc         1 HZJ       0.052200
     32 H4          -4.5600     1.7460    -1.7330 hc         1 HZJ       0.064700
     33 H5          -3.5750     0.6160    -2.6230 hc         1 HZJ       0.064700
     34 H6          -4.5380    -0.9180    -1.0850 h1         1 HZJ       0.047700
     35 H7           4.3310    -2.3670    -0.0040 ha         1 HZJ       0.155000
     36 H8           4.1480     1.6890     1.3620 ha         1 HZJ       0.147000
     37 H9           1.9420    -2.3600    -0.4390 ha         1 HZJ       0.137000
     38 H10          1.9960     2.8660     1.4150 ha         1 HZJ       0.136000
     39 H11         -2.4050     1.4310     1.0200 hc         1 HZJ       0.076700
     40 H12         -2.4070    -2.2120    -1.2170 hc         1 HZJ       0.045700
     41 H13         -1.8770    -0.7390    -1.9960 hc         1 HZJ       0.045700
     42 H14          0.0870    -1.8790    -1.4470 hc         1 HZJ       0.053200
     43 H15         -0.4380    -2.3190     0.1510 hc         1 HZJ       0.053200
     44 H16         -3.3450    -2.1500     1.1470 hc         1 HZJ       0.040033
     45 H17         -1.8450    -1.4370     1.7130 hc         1 HZJ       0.040033
     46 H18         -3.3640    -0.6330     2.0570 hc         1 HZJ       0.040033
     47 H19          6.6810     1.7240    -1.4550 hn         1 HZJ       0.437300
     48 H20          6.9650     2.1460     0.1540 hn         1 HZJ       0.437300
     49 H21         -6.2710    -1.5370     1.8670 hn         1 HZJ       0.429300
     50 H22         -6.4020    -2.0570     0.2670 hn         1 HZJ       0.429300
@<TRIPOS>BOND
     1     1     2 ar  
     2     1    14 ar  
     3     1    15 1   
     4     2    13 ar  
     5     2    29 1   
     6     3     6 1   
     7     3    15 1   
     8     3    16 1   
     9     3    18 1   
    10     4     5 1   
    11     4    15 1   
    12     4    30 1   
    13     4    31 1   
    14     5     6 1   
    15     5    32 1   
    16     5    33 1   
    17     6    24 1   
    18     6    34 1   
    19     7     8 ar  
    20     7    12 ar  
    21     7    35 1   
    22     8     9 ar  
    23     8    21 1   
    24     9    10 ar  
    25     9    36 1   
    26    10    11 ar  
    27    10    13 ar  
    28    11    12 ar  
    29    11    14 ar  
    30    12    37 1   
    31    13    38 1   
    32    14    17 1   
    33    15    39 1   
    34    16    17 1   
    35    16    40 1   
    36    16    41 1   
    37    17    42 1   
    38    17    43 1   
    39    18    44 1   
    40    18    45 1   
    41    18    46 1   
    42    19    27 1   
    43    19    47 1   
    44    19    48 1   
    45    20    28 1   
    46    20    49 1   
    47    20    50 1   
    48    21    27 1   
    49    22    27 2   
    50    23    27 2   
    51    24    28 1   
    52    25    28 2   
    53    26    28 2   
@<TRIPOS>SUBSTRUCTURE
     1 HZJ         1 TEMP              0 ****  ****    0 ROOT
