@<TRIPOS>MOLECULE
HZJ
   50    53     1     0     0
SMALL
No Charge or Current Charge


@<TRIPOS>ATOM
      1 C13         -0.5630     0.6230     0.2880 ca         1 HZJ      -0.061300
      2 C15          0.0700     1.7580     0.8270 ca         1 HZJ      -0.097000
      3 C17         -2.7120    -0.7220    -0.0810 c5         1 HZJ      -0.050000
      4 C20         -2.3930     1.4360    -1.2000 c5         1 HZJ      -0.065400
      5 C21         -3.7730     0.8610    -1.6620 c5         1 HZJ      -0.092400
      6 C22         -4.1110    -0.2890    -0.6510 c5         1 HZJ       0.218300
      7 C01          3.8540    -1.5230     0.0340 ca         1 HZJ      -0.105000
      8 C02          4.4390    -0.3590     0.5490 ca         1 HZJ       0.120100
      9 C03          3.6330     0.7400     0.8810 ca         1 HZJ      -0.094000
     10 C04          2.2410     0.6870     0.6710 ca         1 HZJ      -0.030000
     11 C05          1.6360    -0.4730     0.1270 ca         1 HZJ      -0.028000
     12 C06          2.4660    -1.5820    -0.1790 ca         1 HZJ      -0.089000
     13 C12          1.4560     1.7960     1.0130 ca         1 HZJ      -0.098000
     14 C14          0.2270    -0.5030    -0.0850 ca         1 HZJ      -0.059300
     15 C16         -2.0940     0.6930     0.1380 c5         1 HZJ      -0.013400
     16 C18         -1.9050    -1.5700    -1.1110 c6         1 HZJ      -0.071400
     17 C19         -0.4340    -1.7570    -0.6910 c6         1 HZJ      -0.029100
     18 C23         -2.8260    -1.5360     1.2460 c3         1 HZJ      -0.079100
     19 N11          6.8830     1.9020     0.5830 n8         1 HZJ      -1.067100
     20 N28         -6.9030     0.0340     1.6960 n8         1 HZJ      -1.050100
     21 O07          5.7930    -0.3240     0.7700 os         1 HZJ      -0.443800
     22 O09          6.0190     0.8780    -1.4830 o          1 HZJ      -0.546000
     23 O10          8.0920    -0.0340    -0.3000 o          1 HZJ      -0.546000
     24 O24         -4.9050     0.2710     0.4250 os         1 HZJ      -0.593700
     25 O26         -7.0600    -0.4290    -0.7150 o          1 HZJ      -0.543000
     26 O27         -6.7790     1.9690     0.1570 o          1 HZJ      -0.543000
     27 S08          6.7430     0.5240    -0.2630 s6         1 HZJ       1.396800
     28 S25         -6.4980     0.5370     0.2230 s6         1 HZJ       1.406800
     29 H1          -0.5220     2.6270     1.1070 ha         1 HZJ       0.117000
     30 H2          -1.6230     1.2470    -1.9570 hc         1 HZJ       0.052200
     31 H3          -2.4270     2.5220    -1.0570 hc         1 HZJ       0.052200
     32 H4          -4.5410     1.6410    -1.6910 hc         1 HZJ       0.064700
     33 H5          -3.7040     0.4700    -2.6830 hc         1 HZJ       0.064700
     34 H6          -4.6440    -1.1320    -1.1130 h1         1 HZJ       0.047700
     35 H7           4.4760    -2.3830    -0.2010 ha         1 HZJ       0.137000
     36 H8           4.0880     1.6310     1.3050 ha         1 HZJ       0.129000
     37 H9           2.0560    -2.5060    -0.5760 ha         1 HZJ       0.119000
     38 H10          1.9170     2.6880     1.4310 ha         1 HZJ       0.118000
     39 H11         -2.5610     1.2070     0.9870 hc         1 HZJ       0.076700
     40 H12         -2.3780    -2.5530    -1.2470 hc         1 HZJ       0.045700
     41 H13         -1.9220    -1.1040    -2.1050 hc         1 HZJ       0.045700
     42 H14          0.1210    -2.0810    -1.5820 hc         1 HZJ       0.053200
     43 H15         -0.3620    -2.5840     0.0290 hc         1 HZJ       0.053200
     44 H16         -3.3460    -2.4870     1.0850 hc         1 HZJ       0.040033
     45 H17         -1.8440    -1.7610     1.6780 hc         1 HZJ       0.040033
     46 H18         -3.3790    -0.9850     2.0160 hc         1 HZJ       0.040033
     47 H19          6.9000     2.5620    -0.1880 hn         1 HZJ       0.492500
     48 H20          7.8690     1.8290     0.8180 hn         1 HZJ       0.492500
     49 H21         -5.9600    -0.2230     1.9760 hn         1 HZJ       0.484500
     50 H22         -7.3270    -0.8520     1.4410 hn         1 HZJ       0.484500
@<TRIPOS>BOND
     1     1     2 ar  
     2     1    14 ar  
     3     1    15 1   
     4     2    13 ar  
     5     2    29 1   
     6     3     6 1   
     7     3    15 1   
     8     3    16 1   
     9     3    18 1   
    10     4     5 1   
    11     4    15 1   
    12     4    30 1   
    13     4    31 1   
    14     5     6 1   
    15     5    32 1   
    16     5    33 1   
    17     6    24 1   
    18     6    34 1   
    19     7     8 ar  
    20     7    12 ar  
    21     7    35 1   
    22     8     9 ar  
    23     8    21 1   
    24     9    10 ar  
    25     9    36 1   
    26    10    11 ar  
    27    10    13 ar  
    28    11    12 ar  
    29    11    14 ar  
    30    12    37 1   
    31    13    38 1   
    32    14    17 1   
    33    15    39 1   
    34    16    17 1   
    35    16    40 1   
    36    16    41 1   
    37    17    42 1   
    38    17    43 1   
    39    18    44 1   
    40    18    45 1   
    41    18    46 1   
    42    19    27 1   
    43    19    47 1   
    44    19    48 1   
    45    20    28 1   
    46    20    49 1   
    47    20    50 1   
    48    21    27 1   
    49    22    27 2   
    50    23    27 2   
    51    24    28 1   
    52    25    28 2   
    53    26    28 2   
@<TRIPOS>SUBSTRUCTURE
     1 HZJ         1 TEMP              0 ****  ****    0 ROOT
