@<TRIPOS>MOLECULE
HZK
   49    52     1     0     0
SMALL
bcc


@<TRIPOS>ATOM
      1 C1          -4.3960     0.5270     0.3240 ca         1 HZK      -0.070300
      2 C2          -3.5480    -0.3520    -0.3380 ca         1 HZK      -0.123000
      3 C3          -3.9980    -1.6300    -0.6390 ca         1 HZK       0.056400
      4 C8           3.0390     1.0070    -0.1440 ca         1 HZK       0.032600
      5 C10          1.9560     3.2400     0.2170 c5         1 HZK       0.103000
      6 C11          0.5280     3.5970     0.6170 c5         1 HZK      -0.079400
      7 C12         -0.3200     2.5640    -0.1120 c5         1 HZK      -0.013200
      8 C13          0.6290     1.3630    -0.2320 c          1 HZK       0.691500
      9 C15         -1.5440     2.1320     0.6910 c          1 HZK       0.659100
     10 C19         -3.9730     1.9310     0.6980 c3         1 HZK       0.147300
     11 C21          3.1070    -0.2620     0.4250 ca         1 HZK      -0.085000
     12 C22          5.2800     0.7330    -0.9760 ca         1 HZK      -0.161000
     13 C24          5.3370    -0.5360    -0.4160 ca         1 HZK       0.071600
     14 C27          5.2460    -3.2960     0.0710 c6         1 HZK      -0.160400
     15 N29          6.4900    -1.3120    -0.5350 ns         1 HZK      -0.475100
     16 C4          -5.2690    -2.0630    -0.3040 ca         1 HZK      -0.167000
     17 C5          -6.0840    -1.1610     0.3550 ca         1 HZK       0.148900
     18 C6          -5.6790     0.1170     0.6750 ca         1 HZK      -0.175000
     19 CL7         -2.9350    -2.7210    -1.4610 cl         1 HZK      -0.094400
     20 N9           1.8830     1.8000     0.0050 n          1 HZK      -0.375000
     21 O14         -0.6140     3.0340    -1.4040 oh         1 HZK      -0.586800
     22 O16          0.2850     0.2470    -0.5680 o          1 HZK      -0.598500
     23 N17         -2.7300     2.3520     0.1130 ns         1 HZK      -0.562900
     24 O18         -1.3960     1.6060     1.7820 o          1 HZK      -0.578100
     25 F20         -7.3220    -1.5500     0.6890 f          1 HZK      -0.138900
     26 C23          4.1350     1.5020    -0.8410 ca         1 HZK      -0.122000
     27 C25          4.2480    -1.0360     0.3000 ca         1 HZK      -0.108300
     28 C26          4.3960    -2.3820     0.9420 c6         1 HZK      -0.024100
     29 C28          6.5490    -2.6560    -0.3360 c          1 HZK       0.712500
     30 O30          7.5810    -3.2800    -0.5100 o          1 HZK      -0.616500
     31 H1          -2.5470    -0.0600    -0.6250 ha         1 HZK       0.163000
     32 H2           2.2630     3.7550    -0.6950 h1         1 HZK       0.058200
     33 H3           0.4110     3.4820     1.6940 hc         1 HZK       0.082200
     34 H4          -4.7490     2.6320     0.3900 h1         1 HZK       0.070200
     35 H5          -3.9000     2.0010     1.7850 h1         1 HZK       0.070200
     36 H6           2.2740    -0.6500     0.9970 ha         1 HZK       0.157000
     37 H7           6.1250     1.1240    -1.5280 ha         1 HZK       0.138000
     38 H8           5.4630    -4.2360     0.5760 hc         1 HZK       0.078200
     39 H9           4.7060    -3.5450    -0.8500 hc         1 HZK       0.078200
     40 H10          7.3230    -0.8670    -0.8930 hn         1 HZK       0.323500
     41 H11         -5.6170    -3.0580    -0.5450 ha         1 HZK       0.166000
     42 H12         -6.3550     0.7870     1.1930 ha         1 HZK       0.151000
     43 H13         -0.8310     2.2950    -1.9850 ho         1 HZK       0.427000
     44 H14         -2.7550     2.8140    -0.7820 hn         1 HZK       0.330500
     45 H15          4.1040     2.4840    -1.2940 ha         1 HZK       0.136000
     46 H16          3.4210    -2.8350     1.1240 hc         1 HZK       0.062200
     47 H17          4.8720    -2.2640     1.9210 hc         1 HZK       0.062200
     48 H18          0.2560     4.6170     0.3500 hc         1 HZK       0.082200
     49 H19          2.6790     3.4710     0.9990 h1         1 HZK       0.058200
@<TRIPOS>BOND
     1     1     2 ar  
     2     1    10 1   
     3     1    18 ar  
     4     2     3 ar  
     5     2    31 1   
     6     3    16 ar  
     7     3    19 1   
     8     4    11 ar  
     9     4    20 1   
    10     4    26 ar  
    11     5     6 1   
    12     5    20 1   
    13     5    32 1   
    14     5    49 1   
    15     6     7 1   
    16     6    33 1   
    17     6    48 1   
    18     7     8 1   
    19     7     9 1   
    20     7    21 1   
    21     8    20 1   
    22     8    22 2   
    23     9    23 1   
    24     9    24 2   
    25    10    23 1   
    26    10    34 1   
    27    10    35 1   
    28    11    27 ar  
    29    11    36 1   
    30    12    13 ar  
    31    12    26 ar  
    32    12    37 1   
    33    13    15 1   
    34    13    27 ar  
    35    14    28 1   
    36    14    29 1   
    37    14    38 1   
    38    14    39 1   
    39    15    29 1   
    40    15    40 1   
    41    16    17 ar  
    42    16    41 1   
    43    17    18 ar  
    44    17    25 1   
    45    18    42 1   
    46    21    43 1   
    47    23    44 1   
    48    26    45 1   
    49    27    28 1   
    50    28    46 1   
    51    28    47 1   
    52    29    30 2   
@<TRIPOS>SUBSTRUCTURE
     1 HZK         1 TEMP              0 ****  ****    0 ROOT
