@<TRIPOS>MOLECULE
HZK
   49    52     1     0     0
SMALL
No Charge or Current Charge


@<TRIPOS>ATOM
      1 C1          -4.4750     0.4930     0.6430 ca         1 HZK      -0.070300
      2 C2          -4.0630    -0.7420     1.1830 ca         1 HZK      -0.105000
      3 C3          -4.5490    -1.9470     0.6490 ca         1 HZK       0.148000
      4 C8           3.1250     1.1040    -0.1120 ca         1 HZK      -0.060000
      5 C10          1.8610     3.3050     0.1020 c5         1 HZK       0.103000
      6 C11          0.4170     3.5540     0.6140 c5         1 HZK      -0.079400
      7 C12         -0.4020     2.4420    -0.1130 c5         1 HZK       0.010000
      8 C13          0.6120     1.2990    -0.3600 c          1 HZK       0.549000
      9 C15         -1.4430     1.8260     0.8870 c          1 HZK       0.592100
     10 C19         -3.9400     1.7990     1.2130 c3         1 HZK       0.147300
     11 C21          3.1620    -0.2720     0.2110 ca         1 HZK      -0.067000
     12 C22          5.4520     0.9450    -0.8610 ca         1 HZK      -0.143000
     13 C24          5.4910    -0.4040    -0.4800 ca         1 HZK      -0.021000
     14 C27          5.4790    -3.2950    -0.2880 c6         1 HZK      -0.160400
     15 N29          6.6690    -1.1630    -0.6370 ns         1 HZK      -0.149000
     16 C4          -5.4490    -1.9310    -0.4260 ca         1 HZK      -0.149000
     17 C5          -5.8600    -0.7040    -0.9670 ca         1 HZK       0.184000
     18 C6          -5.3770     0.5040    -0.4390 ca         1 HZK      -0.157000
     19 Cl7         -4.0260    -3.4810     1.3300 cl         1 HZK      -0.186000
     20 N9           1.8830     1.8410    -0.0970 n          1 HZK      -0.215400
     21 O14         -0.9810     2.9180    -1.3690 oh         1 HZK      -0.649000
     22 O16          0.3800     0.1630    -0.7590 o          1 HZK      -0.523000
     23 N17         -2.7150     2.2140     0.5300 ns         1 HZK      -0.495900
     24 O18         -1.2100     1.1150     1.8550 o          1 HZK      -0.578100
     25 F20         -6.7250    -0.6850    -2.0040 f          1 HZK      -0.174000
     26 C23          4.2680     1.6850    -0.7030 ca         1 HZK      -0.104000
     27 C25          4.3430    -1.0200     0.0500 ca         1 HZK      -0.108300
     28 C26          4.4010    -2.4890     0.4840 c6         1 HZK      -0.024100
     29 C28          6.7960    -2.5280    -0.4850 c          1 HZK       0.570000
     30 O30          7.8840    -3.0900    -0.4840 o          1 HZK      -0.541000
     31 H1          -3.3620    -0.7690     2.0150 ha         1 HZK       0.145000
     32 H2           2.0390     3.8200    -0.8510 h1         1 HZK       0.058200
     33 H3           0.3840     3.4310     1.7030 hc         1 HZK       0.082200
     34 H4          -4.6930     2.5890     1.0980 h1         1 HZK       0.070200
     35 H5          -3.7420     1.6860     2.2880 h1         1 HZK       0.070200
     36 H6           2.2840    -0.7590     0.6270 ha         1 HZK       0.139000
     37 H7           6.3300     1.4160    -1.2960 ha         1 HZK       0.120000
     38 H8           5.6680    -4.2920     0.1320 hc         1 HZK       0.078200
     39 H9           5.0770    -3.4330    -1.3000 hc         1 HZK       0.078200
     40 H10          7.5200    -0.6450    -0.8140 hn         1 HZK       0.157000
     41 H11         -5.8260    -2.8620    -0.8400 ha         1 HZK       0.148000
     42 H12         -5.7040     1.4460    -0.8740 ha         1 HZK       0.133000
     43 H13         -1.1460     2.1340    -1.9450 ho         1 HZK       0.466000
     44 H14         -2.7810     2.8180    -0.2830 hn         1 HZK       0.330500
     45 H15          4.2500     2.7190    -1.0400 ha         1 HZK       0.118000
     46 H16          3.4190    -2.9670     0.3550 hc         1 HZK       0.062200
     47 H17          4.6220    -2.5290     1.5600 hc         1 HZK       0.062200
     48 H18          0.0600     4.5670     0.3960 hc         1 HZK       0.082200
     49 H19          2.6180     3.6370     0.8240 h1         1 HZK       0.058200
@<TRIPOS>BOND
     1     1     2 ar  
     2     1    10 1   
     3     1    18 ar  
     4     2     3 ar  
     5     2    31 1   
     6     3    16 ar  
     7     3    19 1   
     8     4    11 ar  
     9     4    20 1   
    10     4    26 ar  
    11     5     6 1   
    12     5    20 1   
    13     5    32 1   
    14     5    49 1   
    15     6     7 1   
    16     6    33 1   
    17     6    48 1   
    18     7     8 1   
    19     7     9 1   
    20     7    21 1   
    21     8    20 1   
    22     8    22 2   
    23     9    23 1   
    24     9    24 2   
    25    10    23 1   
    26    10    34 1   
    27    10    35 1   
    28    11    27 ar  
    29    11    36 1   
    30    12    13 ar  
    31    12    26 ar  
    32    12    37 1   
    33    13    15 1   
    34    13    27 ar  
    35    14    28 1   
    36    14    29 1   
    37    14    38 1   
    38    14    39 1   
    39    15    29 1   
    40    15    40 1   
    41    16    17 ar  
    42    16    41 1   
    43    17    18 ar  
    44    17    25 1   
    45    18    42 1   
    46    21    43 1   
    47    23    44 1   
    48    26    45 1   
    49    27    28 1   
    50    28    46 1   
    51    28    47 1   
    52    29    30 2   
@<TRIPOS>SUBSTRUCTURE
     1 HZK         1 TEMP              0 ****  ****    0 ROOT
