@<TRIPOS>MOLECULE
HZM
   72    75     1     0     0
SMALL
No Charge or Current Charge


@<TRIPOS>ATOM
      1 C02          5.4940     2.8470     1.4980 c          1 HZM       0.714600
      2 C04          4.8260     2.8760     0.1320 ca         1 HZM      -0.079600
      3 C05          3.7510     2.0320    -0.2390 ca         1 HZM      -0.196000
      4 C06          3.1930     2.1230    -1.5010 ca         1 HZM       0.332800
      5 C07          2.1050     1.2080    -1.7130 cc         1 HZM      -0.282800
      6 C08          1.8510     0.4380    -0.5870 cd         1 HZM      -0.172600
      7 C09          0.7890    -0.6270    -0.4330 c3         1 HZM       0.281800
      8 C10         -0.1860    -0.3380     0.7120 ca         1 HZM      -0.038300
      9 C11          0.0540    -0.8110     2.0190 ca         1 HZM      -0.087000
     10 C12         -0.8480    -0.5210     3.0540 ca         1 HZM      -0.091000
     11 C13         -1.9950     0.2450     2.7920 ca         1 HZM      -0.172000
     12 C14         -2.2530     0.7310     1.4980 ca         1 HZM      -0.034000
     13 C16         -3.9920     2.1130     0.1970 c          1 HZM       0.606100
     14 C17         -5.3000     2.8670     0.4790 c3         1 HZM      -0.162400
     15 C18         -6.5260     2.1170    -0.0980 c3         1 HZM      -0.066400
     16 C19         -7.8610     2.8520     0.1680 c3         1 HZM       0.163800
     17 C21        -10.3140     2.7420     0.2730 c3         1 HZM       0.149600
     18 C22         -9.1600     1.8050    -1.6780 c3         1 HZM       0.149600
     19 C24         -1.3390     0.4350     0.4610 ca         1 HZM      -0.122000
     20 C36          4.6240     3.8040    -2.1230 ca         1 HZM       0.303900
     21 C37          5.2550     3.7870    -0.8620 ca         1 HZM      -0.144000
     22 N15         -3.4340     1.5020     1.3130 ns         1 HZM      -0.146000
     23 N20         -9.0780     2.0990    -0.2260 n3         1 HZM      -0.710600
     24 N35          3.6000     2.9830    -2.4520 nb         1 HZM      -0.676000
     25 O01          5.6110     1.7770     2.0790 o          1 HZM      -0.703500
     26 O03          5.9390     3.8970     1.9410 o          1 HZM      -0.703500
     27 O23         -3.4970     2.0970    -0.9240 o          1 HZM      -0.578100
     28 O25          1.4250    -1.9010    -0.2170 os         1 HZM      -0.434000
     29 S34          2.9450     0.8100     0.7780 ss         1 HZM       0.223400
     30 H1           1.5470     1.1300    -2.6400 ha         1 HZM       0.192000
     31 H2           0.2060    -0.6660    -1.3630 h1         1 HZM       0.039700
     32 H3           0.9410    -1.4030     2.2350 ha         1 HZM       0.143000
     33 H4          -0.6580    -0.8900     4.0590 ha         1 HZM       0.109000
     34 H5          -2.6860     0.4620     3.6040 ha         1 HZM       0.096000
     35 H6          -5.4400     2.9810     1.5620 hc         1 HZM       0.054200
     36 H7          -5.2440     3.8550     0.0070 hc         1 HZM       0.054200
     37 H8          -6.3850     1.9890    -1.1780 hc         1 HZM       0.064700
     38 H9          -6.5790     1.1140     0.3430 hc         1 HZM       0.064700
     39 H10         -7.9090     3.0660     1.2450 h1         1 HZM       0.025200
     40 H11         -7.8370     3.8220    -0.3480 h1         1 HZM       0.025200
     41 H12        -10.4550     3.7300    -0.1860 h1         1 HZM       0.029367
     42 H13        -11.1930     2.1260     0.0430 h1         1 HZM       0.029367
     43 H14        -10.2710     2.8730     1.3630 h1         1 HZM       0.029367
     44 H15         -8.3170     1.1840    -2.0070 h1         1 HZM       0.029367
     45 H16        -10.0820     1.2560    -1.9090 h1         1 HZM       0.029367
     46 H17         -9.1570     2.7330    -2.2660 h1         1 HZM       0.029367
     47 H18         -1.5020     0.7980    -0.5480 ha         1 HZM       0.143000
     48 H19          1.5460    -2.4850    -2.2330 h1         1 HZM       0.027700
     49 H20          3.0190    -1.7520    -1.5740 h1         1 HZM       0.027700
     50 H22          4.9500     4.5000    -2.8950 h4         1 HZM      -0.008900
     51 H23          6.0720     4.4760    -0.6680 ha         1 HZM       0.132000
     52 H24         -3.9730     1.6250     2.1600 hn         1 HZM       0.141000
     53 C27          2.7420    -3.8180    -0.9760 c3         1 HZM       0.169800
     54 N28          1.7460    -4.8770    -0.6330 n3         1 HZM      -0.700600
     55 C33          2.4060    -6.1170    -0.1390 c6         1 HZM       0.168800
     56 C32          1.3730    -7.1670     0.3410 c6         1 HZM      -0.075400
     57 C31          0.3610    -7.5010    -0.7780 c6         1 HZM      -0.074400
     58 C30         -0.2860    -6.2020    -1.3090 c6         1 HZM      -0.075400
     59 C29          0.7910    -5.1760    -1.7410 c6         1 HZM       0.168800
     60 H21          3.3560    -4.1570    -1.8220 h1         1 HZM       0.040200
     61 H25          3.4280    -3.6800    -0.1300 h1         1 HZM       0.040200
     62 H27          3.0230    -6.5600    -0.9350 h1         1 HZM       0.027700
     63 H28          3.0790    -5.8810     0.6980 h1         1 HZM       0.027700
     64 H29          1.8930    -8.0800     0.6630 hc         1 HZM       0.043450
     65 H30          0.8410    -6.7810     1.2220 hc         1 HZM       0.043450
     66 H31          0.8730    -8.0230    -1.5980 hc         1 HZM       0.030700
     67 H32         -0.4120    -8.1830    -0.3990 hc         1 HZM       0.030700
     68 H33         -0.9440    -6.4300    -2.1580 hc         1 HZM       0.043450
     69 H34         -0.9220    -5.7580    -0.5300 hc         1 HZM       0.043450
     70 H35          0.2750    -4.2610    -2.0660 h1         1 HZM       0.027700
     71 H36          1.3330    -5.5700    -2.6130 h1         1 HZM       0.027700
     72 C26          2.1760    -2.4150    -1.3380 c3         1 HZM       0.161600
@<TRIPOS>BOND
     1     1     2 1   
     2     1    25 1   
     3     1    26 1   
     4     2     3 ar  
     5     2    21 ar  
     6     3     4 ar  
     7     3    29 1   
     8     4     5 1   
     9     4    24 ar  
    10     5     6 2   
    11     5    30 1   
    12     6     7 1   
    13     6    29 1   
    14     7     8 1   
    15     7    28 1   
    16     7    31 1   
    17     8     9 ar  
    18     8    19 ar  
    19     9    10 ar  
    20     9    32 1   
    21    10    11 ar  
    22    10    33 1   
    23    11    12 ar  
    24    11    34 1   
    25    12    19 ar  
    26    12    22 1   
    27    13    14 1   
    28    13    22 1   
    29    13    27 2   
    30    14    15 1   
    31    14    35 1   
    32    14    36 1   
    33    15    16 1   
    34    15    37 1   
    35    15    38 1   
    36    16    23 1   
    37    16    39 1   
    38    16    40 1   
    39    17    23 1   
    40    17    41 1   
    41    17    42 1   
    42    17    43 1   
    43    18    23 1   
    44    18    44 1   
    45    18    45 1   
    46    18    46 1   
    47    19    47 1   
    48    20    21 ar  
    49    20    24 ar  
    50    20    50 1   
    51    21    51 1   
    52    22    52 1   
    53    28    72 1   
    54    48    72 1   
    55    49    72 1   
    56    53    54 1   
    57    53    60 1   
    58    53    61 1   
    59    53    72 1   
    60    54    55 1   
    61    54    59 1   
    62    55    56 1   
    63    55    62 1   
    64    55    63 1   
    65    56    57 1   
    66    56    64 1   
    67    56    65 1   
    68    57    58 1   
    69    57    66 1   
    70    57    67 1   
    71    58    59 1   
    72    58    68 1   
    73    58    69 1   
    74    59    70 1   
    75    59    71 1   
@<TRIPOS>SUBSTRUCTURE
     1 HZM         1 TEMP              0 ****  ****    0 ROOT
