@<TRIPOS>MOLECULE
HZM
   72    75     1     0     0
SMALL
bcc


@<TRIPOS>ATOM
      1 C02          5.8170     2.0100     0.7020 c          1 HZM       0.925200
      2 C04          4.7330     2.5660    -0.2070 ca         1 HZM      -0.079600
      3 C05          3.5610     1.8560    -0.4400 ca         1 HZM      -0.134400
      4 C06          2.5670     2.3840    -1.2870 ca         1 HZM       0.398100
      5 C07          1.4420     1.5030    -1.4100 cc         1 HZM      -0.232800
      6 C08          1.5980     0.3790    -0.6770 cd         1 HZM      -0.172600
      7 C09          0.6240    -0.7530    -0.5000 c3         1 HZM       0.258600
      8 C10         -0.2350    -0.5150     0.7210 ca         1 HZM      -0.038300
      9 C11          0.2080    -0.8580     1.9920 ca         1 HZM      -0.105000
     10 C12         -0.6010    -0.5830     3.0850 ca         1 HZM      -0.109000
     11 C13         -1.8340     0.0220     2.9200 ca         1 HZM      -0.190000
     12 C14         -2.2880     0.3640     1.6440 ca         1 HZM       0.058600
     13 C16         -4.2460     1.3710     0.4690 c          1 HZM       0.673100
     14 C17         -5.5920     1.9740     0.8100 c3         1 HZM      -0.162400
     15 C18         -6.5570     2.0060    -0.3650 c3         1 HZM      -0.066400
     16 C19         -7.8870     2.6200     0.0500 c3         1 HZM       0.163800
     17 C21        -10.1940     2.9400    -0.4660 c3         1 HZM       0.149600
     18 C22         -8.5580     3.4250    -2.1220 c3         1 HZM       0.149600
     19 C24         -1.4740     0.0910     0.5440 ca         1 HZM      -0.140000
     20 C36          3.8060     4.2390    -1.6710 ca         1 HZM       0.369200
     21 C37          4.8400     3.7890    -0.8470 ca         1 HZM      -0.227300
     22 N15         -3.5530     0.9490     1.5600 ns         1 HZM      -0.472100
     23 N20         -8.8950     2.5820    -0.9940 n3         1 HZM      -0.710600
     24 N35          2.6910     3.5650    -1.8960 nb         1 HZM      -0.676000
     25 O01          5.5590     0.8960     1.2000 o          1 HZM      -0.808800
     26 O03          6.8350     2.7010     0.8600 o          1 HZM      -0.808800
     27 O23         -3.8280     1.2920    -0.6710 o          1 HZM      -0.578100
     28 O25          1.2990    -1.9710    -0.3540 os         1 HZM      -0.387600
     29 S34          3.1120     0.3080     0.1860 ss         1 HZM       0.096500
     30 H1           0.5740     1.7200    -2.0190 ha         1 HZM       0.142000
     31 H2          -0.0330    -0.7700    -1.3830 h1         1 HZM       0.039700
     32 H3           1.1680    -1.3360     2.1390 ha         1 HZM       0.161000
     33 H4          -0.2680    -0.8420     4.0820 ha         1 HZM       0.127000
     34 H5          -2.4540     0.2240     3.7860 ha         1 HZM       0.114000
     35 H6          -6.0350     1.4300     1.6490 hc         1 HZM       0.054200
     36 H7          -5.4140     2.9920     1.1780 hc         1 HZM       0.054200
     37 H8          -6.1110     2.5720    -1.1840 hc         1 HZM       0.064700
     38 H9          -6.7320     0.9930    -0.7350 hc         1 HZM       0.064700
     39 H10         -8.2750     2.0580     0.9060 h1         1 HZM       0.025200
     40 H11         -7.7180     3.6510     0.4100 h1         1 HZM       0.025200
     41 H12        -10.2380     3.9710    -0.0780 h1         1 HZM       0.029367
     42 H13        -10.9540     2.8470    -1.2430 h1         1 HZM       0.029367
     43 H14        -10.4680     2.2690     0.3500 h1         1 HZM       0.029367
     44 H15         -7.6360     3.0940    -2.5980 h1         1 HZM       0.029367
     45 H16         -9.3480     3.3700    -2.8720 h1         1 HZM       0.029367
     46 H17         -8.4320     4.4840    -1.8450 h1         1 HZM       0.029367
     47 H18         -1.7990     0.3420    -0.4530 ha         1 HZM       0.161000
     48 H19          0.9950    -2.6560    -2.2770 h1         1 HZM       0.027700
     49 H20          2.4850    -1.7500    -2.0520 h1         1 HZM       0.027700
     50 H22          3.8980     5.1990    -2.1680 h4         1 HZM      -0.008900
     51 H23          5.7220     4.4000    -0.7120 ha         1 HZM       0.150000
     52 H24         -4.0190     1.0700     2.4470 hn         1 HZM       0.307500
     53 C27          2.6100    -3.7330    -1.3110 c3         1 HZM       0.169800
     54 N28          1.9120    -4.7620    -0.5690 n3         1 HZM      -0.700600
     55 C33          2.7890    -5.9030    -0.3710 c6         1 HZM       0.168800
     56 C32          2.1460    -6.9720     0.4990 c6         1 HZM      -0.075400
     57 C31          0.8160    -7.4180    -0.0920 c6         1 HZM      -0.074400
     58 C30         -0.0660    -6.2000    -0.3320 c6         1 HZM      -0.075400
     59 C29          0.6540    -5.1580    -1.1760 c6         1 HZM       0.168800
     60 H21          2.9510    -4.0920    -2.2990 h1         1 HZM       0.040200
     61 H25          3.5140    -3.4700    -0.7530 h1         1 HZM       0.040200
     62 H27          3.0820    -6.3530    -1.3380 h1         1 HZM       0.027700
     63 H28          3.7130    -5.5520     0.0980 h1         1 HZM       0.027700
     64 H29          2.8340    -7.8150     0.5970 hc         1 HZM       0.043450
     65 H30          1.9880    -6.5700     1.5050 hc         1 HZM       0.043450
     66 H31          0.9930    -7.9320    -1.0430 hc         1 HZM       0.030700
     67 H32          0.3180    -8.1340     0.5660 hc         1 HZM       0.030700
     68 H33         -0.9960    -6.4820    -0.8300 hc         1 HZM       0.043450
     69 H34         -0.3410    -5.7510     0.6280 hc         1 HZM       0.043450
     70 H35          0.0090    -4.2840    -1.2730 h1         1 HZM       0.027700
     71 H36          0.8050    -5.5580    -2.1970 h1         1 HZM       0.027700
     72 C26          1.8130    -2.4730    -1.5690 c3         1 HZM       0.138400
@<TRIPOS>BOND
     1     1     2 1   
     2     1    25 1   
     3     1    26 1   
     4     2     3 ar  
     5     2    21 ar  
     6     3     4 ar  
     7     3    29 1   
     8     4     5 1   
     9     4    24 ar  
    10     5     6 2   
    11     5    30 1   
    12     6     7 1   
    13     6    29 1   
    14     7     8 1   
    15     7    28 1   
    16     7    31 1   
    17     8     9 ar  
    18     8    19 ar  
    19     9    10 ar  
    20     9    32 1   
    21    10    11 ar  
    22    10    33 1   
    23    11    12 ar  
    24    11    34 1   
    25    12    19 ar  
    26    12    22 1   
    27    13    14 1   
    28    13    22 1   
    29    13    27 2   
    30    14    15 1   
    31    14    35 1   
    32    14    36 1   
    33    15    16 1   
    34    15    37 1   
    35    15    38 1   
    36    16    23 1   
    37    16    39 1   
    38    16    40 1   
    39    17    23 1   
    40    17    41 1   
    41    17    42 1   
    42    17    43 1   
    43    18    23 1   
    44    18    44 1   
    45    18    45 1   
    46    18    46 1   
    47    19    47 1   
    48    20    21 ar  
    49    20    24 ar  
    50    20    50 1   
    51    21    51 1   
    52    22    52 1   
    53    28    72 1   
    54    48    72 1   
    55    49    72 1   
    56    53    54 1   
    57    53    60 1   
    58    53    61 1   
    59    53    72 1   
    60    54    55 1   
    61    54    59 1   
    62    55    56 1   
    63    55    62 1   
    64    55    63 1   
    65    56    57 1   
    66    56    64 1   
    67    56    65 1   
    68    57    58 1   
    69    57    66 1   
    70    57    67 1   
    71    58    59 1   
    72    58    68 1   
    73    58    69 1   
    74    59    70 1   
    75    59    71 1   
@<TRIPOS>SUBSTRUCTURE
     1 HZM         1 TEMP              0 ****  ****    0 ROOT
