@<TRIPOS>MOLECULE
HZN
    6     5     1     0     0
SMALL
No Charge or Current Charge


@<TRIPOS>ATOM
      1 N2           0.7270    -0.1440     0.0330 n8         1 HZN      -0.776500
      2 N1          -0.8090     0.0860     0.0170 n8         1 HZN      -0.776500
      3 H1           1.0480    -0.3790    -0.9260 hn         1 HZN       0.388000
      4 H2           1.1940     0.7500     0.2750 hn         1 HZN       0.388000
      5 H3          -1.1050     0.3610    -0.9400 hn         1 HZN       0.388000
      6 H4          -1.2820    -0.8170     0.2100 hn         1 HZN       0.388000
@<TRIPOS>BOND
     1     1     2 1   
     2     1     3 1   
     3     1     4 1   
     4     2     5 1   
     5     2     6 1   
@<TRIPOS>SUBSTRUCTURE
     1 HZN         1 TEMP              0 ****  ****    0 ROOT
