@<TRIPOS>MOLECULE
HZN
    6     5     1     0     0
SMALL
abcg2


@<TRIPOS>ATOM
      1 N2           0.6590    -0.1380     0.0290 n8         1 HZN      -0.776500
      2 N1          -0.7410     0.0800     0.0150 n8         1 HZN      -0.776500
      3 H1           0.9970    -0.4260    -0.8810 hn         1 HZN       0.388000
      4 H2           1.1030     0.7470     0.2300 hn         1 HZN       0.388000
      5 H3          -1.0540     0.4060    -0.8920 hn         1 HZN       0.388000
      6 H4          -1.1900    -0.8120     0.1670 hn         1 HZN       0.388000
@<TRIPOS>BOND
     1     1     2 1   
     2     1     3 1   
     3     1     4 1   
     4     2     5 1   
     5     2     6 1   
@<TRIPOS>SUBSTRUCTURE
     1 HZN         1 TEMP              0 ****  ****    0 ROOT
