@<TRIPOS>MOLECULE
HZO
   38    41     1     0     0
SMALL
bcc


@<TRIPOS>ATOM
      1 C10         80.3150    -4.6550   -30.3220 ca         1 HZO       0.430600
      2 C13         82.0790    -2.6570   -29.4250 ca         1 HZO      -0.044000
      3 C15         84.0340    -1.2590   -29.6980 ca         1 HZO      -0.124000
      4 C17         83.2870    -2.6670   -31.5080 ca         1 HZO      -0.127000
      5 C20         80.9640    -4.3750   -32.6300 ca         1 HZO       0.029700
      6 C21         81.5650    -3.6090   -33.7760 c6         1 HZO      -0.044100
      7 C2          80.7260    -3.6480   -35.0570 c6         1 HZO      -0.038000
      8 C3          79.4030    -2.9030   -34.8690 c3         1 HZO      -0.087600
      9 C4          80.4820    -5.1110   -35.4140 c6         1 HZO      -0.173400
     10 C5          79.8320    -5.8810   -34.3010 c          1 HZO       0.594700
     11 C7          80.0860    -5.4150   -32.9160 ca         1 HZO      -0.310900
     12 C8          79.3890    -6.0400   -31.8700 ca         1 HZO       0.462200
     13 C11         80.2810    -4.2010   -28.9690 ca         1 HZO      -0.175300
     14 C12         81.0930    -3.2080   -28.5530 ca         1 HZO      -0.100000
     15 C14         82.9970    -1.7170   -28.9240 ca         1 HZO      -0.112000
     16 C16         84.1900    -1.7650   -30.9910 ca         1 HZO      -0.122000
     17 C18         82.1740    -3.1070   -30.7660 ca         1 HZO      -0.006000
     18 C19         81.1810    -4.0470   -31.2640 ca         1 HZO      -0.144300
     19 N9          79.4570    -5.6470   -30.6280 nb         1 HZO      -0.674000
     20 O6          79.1470    -6.8610   -34.5120 o          1 HZO      -0.525100
     21 H1          84.7380    -0.5400   -29.3020 ha         1 HZO       0.135000
     22 H2          83.4880    -3.0620   -32.4890 ha         1 HZO       0.132000
     23 H3          82.5570    -4.0160   -34.0040 hc         1 HZO       0.063200
     24 H4          81.7150    -2.5670   -33.4870 hc         1 HZO       0.063200
     25 H5          81.7340    -1.9360   -35.9290 hc         1 HZO       0.039367
     26 H6          82.4640    -3.4850   -36.3610 hc         1 HZO       0.039367
     27 H7          80.9470    -2.9830   -37.1090 hc         1 HZO       0.039367
     28 H8          78.7830    -3.3230   -34.0750 hc         1 HZO       0.039367
     29 H9          79.5850    -1.8560   -34.6220 hc         1 HZO       0.039367
     30 H10         78.8160    -2.9300   -35.7900 hc         1 HZO       0.039367
     31 H11         79.8760    -5.2110   -36.3180 hc         1 HZO       0.073700
     32 H12         81.4440    -5.5980   -35.6230 hc         1 HZO       0.073700
     33 H13         78.7210    -6.8650   -32.0870 h4         1 HZO       0.041100
     34 H14         79.5690    -4.6680   -28.3010 ha         1 HZO       0.155000
     35 H15         81.0410    -2.8440   -27.5340 ha         1 HZO       0.137000
     36 H16         82.8840    -1.3760   -27.9010 ha         1 HZO       0.134000
     37 H17         85.0350    -1.4580   -31.5940 ha         1 HZO       0.132000
     38 C1          81.5150    -2.9760   -36.1780 c3         1 HZO      -0.087600
@<TRIPOS>BOND
     1     1    13 ar  
     2     1    18 ar  
     3     1    19 ar  
     4     2    14 ar  
     5     2    15 ar  
     6     2    17 ar  
     7     3    15 ar  
     8     3    16 ar  
     9     3    21 1   
    10     4    16 ar  
    11     4    17 ar  
    12     4    22 1   
    13     5     6 1   
    14     5    11 ar  
    15     5    18 ar  
    16     6     7 1   
    17     6    23 1   
    18     6    24 1   
    19     7     8 1   
    20     7     9 1   
    21     7    38 1   
    22     8    28 1   
    23     8    29 1   
    24     8    30 1   
    25     9    10 1   
    26     9    31 1   
    27     9    32 1   
    28    10    11 1   
    29    10    20 2   
    30    11    12 ar  
    31    12    19 ar  
    32    12    33 1   
    33    13    14 ar  
    34    13    34 1   
    35    14    35 1   
    36    15    36 1   
    37    16    37 1   
    38    17    18 ar  
    39    25    38 1   
    40    26    38 1   
    41    27    38 1   
@<TRIPOS>SUBSTRUCTURE
     1 HZO         1 TEMP              0 ****  ****    0 ROOT
