@<TRIPOS>MOLECULE
HZO
   38    41     1     0     0
SMALL
No Charge or Current Charge


@<TRIPOS>ATOM
      1 C10         80.3350    -4.6760   -30.2640 ca         1 HZO       0.300000
      2 C13         82.1290    -2.7110   -29.3460 ca         1 HZO      -0.044000
      3 C15         84.0200    -1.1990   -29.6180 ca         1 HZO      -0.106000
      4 C17         83.2550    -2.5680   -31.4750 ca         1 HZO      -0.109000
      5 C20         80.9540    -4.3700   -32.6040 ca         1 HZO       0.029700
      6 C21         81.5490    -3.5980   -33.8040 c6         1 HZO      -0.044100
      7 C2          80.7380    -3.6770   -35.1280 c6         1 HZO      -0.038000
      8 C3          79.4030    -2.8750   -35.0150 c3         1 HZO      -0.087600
      9 C4          80.4660    -5.1670   -35.4350 c6         1 HZO      -0.173400
     10 C5          79.7210    -5.8570   -34.2960 c          1 HZO       0.594700
     11 C7          80.0350    -5.4130   -32.8970 ca         1 HZO      -0.245600
     12 C8          79.3380    -6.0290   -31.8600 ca         1 HZO       0.396900
     13 C11         80.3600    -4.2940   -28.9170 ca         1 HZO      -0.092000
     14 C12         81.2140    -3.2920   -28.4650 ca         1 HZO      -0.082000
     15 C14         83.0220    -1.7580   -28.8170 ca         1 HZO      -0.094000
     16 C16         84.1490    -1.6250   -30.9410 ca         1 HZO      -0.104000
     17 C18         82.1730    -3.0990   -30.7170 ca         1 HZO      -0.006000
     18 C19         81.1890    -4.0360   -31.2190 ca         1 HZO      -0.079000
     19 N9          79.4580    -5.6490   -30.5820 nb         1 HZO      -0.674000
     20 O6          78.8660    -6.7000   -34.5360 o          1 HZO      -0.525100
     21 H1          84.7150    -0.4710   -29.2040 ha         1 HZO       0.117000
     22 H2          83.4880    -2.9020   -32.4720 ha         1 HZO       0.114000
     23 H3          82.5530    -3.9960   -34.0060 hc         1 HZO       0.063200
     24 H4          81.6510    -2.5340   -33.5510 hc         1 HZO       0.063200
     25 H5          81.7840    -1.9870   -36.0950 hc         1 HZO       0.039367
     26 H6          82.5100    -3.5610   -36.4440 hc         1 HZO       0.039367
     27 H7          81.0050    -3.0880   -37.2410 hc         1 HZO       0.039367
     28 H8          78.7740    -3.2310   -34.1900 hc         1 HZO       0.039367
     29 H9          79.5910    -1.8090   -34.8370 hc         1 HZO       0.039367
     30 H10         78.8110    -2.9540   -35.9350 hc         1 HZO       0.039367
     31 H11         79.9400    -5.3300   -36.3840 hc         1 HZO       0.073700
     32 H12         81.4410    -5.6670   -35.5010 hc         1 HZO       0.073700
     33 H13         78.6160    -6.8230   -32.0490 h4         1 HZO       0.041100
     34 H14         79.6850    -4.7730   -28.2130 ha         1 HZO       0.137000
     35 H15         81.1930    -3.0040   -27.4160 ha         1 HZO       0.119000
     36 H16         82.9540    -1.4620   -27.7720 ha         1 HZO       0.116000
     37 H17         84.9580    -1.2370   -31.5570 ha         1 HZO       0.114000
     38 C1          81.5550    -3.0420   -36.2930 c3         1 HZO      -0.087600
@<TRIPOS>BOND
     1     1    13 ar  
     2     1    18 ar  
     3     1    19 ar  
     4     2    14 ar  
     5     2    15 ar  
     6     2    17 ar  
     7     3    15 ar  
     8     3    16 ar  
     9     3    21 1   
    10     4    16 ar  
    11     4    17 ar  
    12     4    22 1   
    13     5     6 1   
    14     5    11 ar  
    15     5    18 ar  
    16     6     7 1   
    17     6    23 1   
    18     6    24 1   
    19     7     8 1   
    20     7     9 1   
    21     7    38 1   
    22     8    28 1   
    23     8    29 1   
    24     8    30 1   
    25     9    10 1   
    26     9    31 1   
    27     9    32 1   
    28    10    11 1   
    29    10    20 2   
    30    11    12 ar  
    31    12    19 ar  
    32    12    33 1   
    33    13    14 ar  
    34    13    34 1   
    35    14    35 1   
    36    15    36 1   
    37    16    37 1   
    38    17    18 ar  
    39    25    38 1   
    40    26    38 1   
    41    27    38 1   
@<TRIPOS>SUBSTRUCTURE
     1 HZO         1 TEMP              0 ****  ****    0 ROOT
