@<TRIPOS>MOLECULE
HZP
   17    17     1     0     0
SMALL
No Charge or Current Charge


@<TRIPOS>ATOM
      1 OXT         25.2570   -17.2920   -18.2040 o          1 HZP      -0.730000
      2 N           25.6000   -17.0860   -14.7430 n7         1 HZP      -0.824400
      3 CA          24.6940   -17.5840   -15.8300 c5         1 HZP       0.034500
      4 C           25.3820   -17.9970   -17.2090 c          1 HZP       0.733000
      5 O           26.0240   -19.0410   -17.2490 o          1 HZP      -0.730000
      6 CB          23.7280   -16.3780   -15.9920 c5         1 HZP      -0.052400
      7 CG          23.3480   -16.1250   -14.5070 c5         1 HZP       0.153300
      8 CD          24.6950   -16.4420   -13.7550 c5         1 HZP       0.117800
      9 OD1         22.8770   -14.7920   -14.2940 oh         1 HZP      -0.647000
     10 HA          24.1360   -18.4580   -15.4640 h1         1 HZP      -0.007300
     11 HB          24.2300   -15.5090   -16.4340 hc         1 HZP       0.055700
     12 HBA         22.8560   -16.6140   -16.6110 hc         1 HZP       0.055700
     13 HG          22.5770   -16.8440   -14.1960 h1         1 HZP       0.001700
     14 HD          24.5050   -17.1270   -12.9180 h1         1 HZP       0.006200
     15 HDA         25.1680   -15.5390   -13.3440 h1         1 HZP       0.006200
     16 HOD1        22.7120   -14.7040   -13.3300 ho         1 HZP       0.413000
     17 HN          26.1240   -17.8620   -14.3160 hn         1 HZP       0.413000
@<TRIPOS>BOND
     1     1     4 1   
     2     2     3 1   
     3     2     8 1   
     4     2    17 1   
     5     3     4 1   
     6     3     6 1   
     7     3    10 1   
     8     4     5 1   
     9     6     7 1   
    10     6    11 1   
    11     6    12 1   
    12     7     8 1   
    13     7     9 1   
    14     7    13 1   
    15     8    14 1   
    16     8    15 1   
    17     9    16 1   
@<TRIPOS>SUBSTRUCTURE
     1 HZP         1 TEMP              0 ****  ****    0 ROOT
