@<TRIPOS>MOLECULE
HZP
   17    17     1     0     0
SMALL
bcc


@<TRIPOS>ATOM
      1 OXT         24.8240   -17.8550   -18.1840 o          1 HZP      -0.835300
      2 N           25.4820   -17.0330   -14.7330 n7         1 HZP      -0.769200
      3 CA          24.7050   -17.5670   -15.8410 c5         1 HZP       0.034500
      4 C           25.5010   -17.7770   -17.1380 c          1 HZP       0.943600
      5 O           26.7370   -17.8960   -17.0330 o          1 HZP      -0.835300
      6 CB          23.5490   -16.5640   -15.9290 c5         1 HZP      -0.052400
      7 CG          23.3890   -16.0130   -14.5010 c5         1 HZP       0.130100
      8 CD          24.4910   -16.7410   -13.7180 c5         1 HZP       0.117800
      9 OD1         23.5580   -14.6090   -14.5320 oh         1 HZP      -0.584800
     10 HA          24.2700   -18.5520   -15.5780 h1         1 HZP      -0.007300
     11 HB          23.8020   -15.7430   -16.6030 hc         1 HZP       0.055700
     12 HBA         22.6340   -17.0210   -16.3030 hc         1 HZP       0.055700
     13 HG          22.4080   -16.2670   -14.0820 h1         1 HZP       0.001700
     14 HD          24.0590   -17.6500   -13.2680 h1         1 HZP       0.006200
     15 HDA         24.8980   -16.1380   -12.9010 h1         1 HZP       0.006200
     16 HOD1        23.4270   -14.2750   -13.6390 ho         1 HZP       0.374000
     17 HN          26.1790   -17.6920   -14.4140 hn         1 HZP       0.357800
@<TRIPOS>BOND
     1     1     4 1   
     2     2     3 1   
     3     2     8 1   
     4     2    17 1   
     5     3     4 1   
     6     3     6 1   
     7     3    10 1   
     8     4     5 1   
     9     6     7 1   
    10     6    11 1   
    11     6    12 1   
    12     7     8 1   
    13     7     9 1   
    14     7    13 1   
    15     8    14 1   
    16     8    15 1   
    17     9    16 1   
@<TRIPOS>SUBSTRUCTURE
     1 HZP         1 TEMP              0 ****  ****    0 ROOT
