@<TRIPOS>MOLECULE
HZQ
   18    19     1     0     0
SMALL
No Charge or Current Charge


@<TRIPOS>ATOM
      1 C1          -0.2210    -0.4200     0.0020 ca         1 HZQ      -0.034000
      2 C2           1.1200     0.0480     0.0760 ca         1 HZQ       0.194000
      3 C3          -1.2910     0.5070    -0.0500 ca         1 HZQ       0.086000
      4 N6           2.1830    -0.8030     0.1280 nb         1 HZQ      -0.691000
      5 C7          -1.0320     1.8880    -0.0290 ca         1 HZQ      -0.050000
      6 C9           0.6590    -2.6780     0.0360 ca         1 HZQ      -0.157000
      7 C10          0.2880     2.3580     0.0440 ca         1 HZQ      -0.164000
      8 C12          1.9490    -2.1360     0.1080 ca         1 HZQ       0.359900
      9 C4          -0.4470    -1.8140    -0.0180 ca         1 HZQ      -0.055000
     10 C5           1.3510     1.4460     0.0950 ca         1 HZQ       0.178100
     11 Cl8         -2.9740    -0.0180    -0.1430 cl         1 HZQ      -0.200000
     12 O11          2.6350     1.9080     0.1660 oh         1 HZQ      -0.520100
     13 H1          -1.8580     2.5940    -0.0700 ha         1 HZQ       0.131000
     14 H2           0.5230    -3.7550     0.0230 ha         1 HZQ       0.128000
     15 H3           0.4870     3.4270     0.0600 ha         1 HZQ       0.137000
     16 H4           2.8230    -2.7850     0.1510 h4         1 HZQ       0.023100
     17 H5          -1.4480    -2.2330    -0.0730 ha         1 HZQ       0.134000
     18 H6           3.1940     1.0970     0.1920 ho         1 HZQ       0.499000
@<TRIPOS>BOND
     1     1     2 ar  
     2     1     3 ar  
     3     1     9 ar  
     4     2     4 ar  
     5     2    10 ar  
     6     3     5 ar  
     7     3    11 1   
     8     4     8 ar  
     9     5     7 ar  
    10     5    13 1   
    11     6     8 ar  
    12     6     9 ar  
    13     6    14 1   
    14     7    10 ar  
    15     7    15 1   
    16     8    16 1   
    17     9    17 1   
    18    10    12 1   
    19    12    18 1   
@<TRIPOS>SUBSTRUCTURE
     1 HZQ         1 TEMP              0 ****  ****    0 ROOT
