@<TRIPOS>MOLECULE
HZQ
   18    19     1     0     0
SMALL
abcg2


@<TRIPOS>ATOM
      1 C1          -0.2600    -0.4300    -0.0000 ca         1 HZQ      -0.034000
      2 C2           1.0720     0.0390     0.0730 ca         1 HZQ       0.194000
      3 C3          -1.2990     0.5280    -0.0500 ca         1 HZQ       0.086000
      4 N6           2.1410    -0.7800     0.1270 nb         1 HZQ      -0.691000
      5 C7          -1.0170     1.8660    -0.0280 ca         1 HZQ      -0.050000
      6 C9           0.6600    -2.6470     0.0360 ca         1 HZQ      -0.157000
      7 C10          0.3100     2.3280     0.0440 ca         1 HZQ      -0.164000
      8 C12          1.9430    -2.0710     0.1090 ca         1 HZQ       0.359900
      9 C4          -0.4360    -1.8310    -0.0180 ca         1 HZQ      -0.055000
     10 C5           1.3490     1.4350     0.0950 ca         1 HZQ       0.178100
     11 CL8         -2.9480    -0.0010    -0.1390 cl         1 HZQ      -0.200000
     12 O11          2.6180     1.8440     0.1630 oh         1 HZQ      -0.520100
     13 H1          -1.8190     2.5900    -0.0670 ha         1 HZQ       0.131000
     14 H2           0.5550    -3.7220     0.0230 ha         1 HZQ       0.128000
     15 H3           0.5010     3.3930     0.0590 ha         1 HZQ       0.137000
     16 H4           2.8200    -2.7070     0.1540 h4         1 HZQ       0.023100
     17 H5          -1.4290    -2.2550    -0.0750 ha         1 HZQ       0.134000
     18 H6           3.1800     1.0510     0.1910 ho         1 HZQ       0.499000
@<TRIPOS>BOND
     1     1     2 ar  
     2     1     3 ar  
     3     1     9 ar  
     4     2     4 ar  
     5     2    10 ar  
     6     3     5 ar  
     7     3    11 1   
     8     4     8 ar  
     9     5     7 ar  
    10     5    13 1   
    11     6     8 ar  
    12     6     9 ar  
    13     6    14 1   
    14     7    10 ar  
    15     7    15 1   
    16     8    16 1   
    17     9    17 1   
    18    10    12 1   
    19    12    18 1   
@<TRIPOS>SUBSTRUCTURE
     1 HZQ         1 TEMP              0 ****  ****    0 ROOT
