@<TRIPOS>MOLECULE
HZR
   49    51     1     0     0
SMALL
No Charge or Current Charge


@<TRIPOS>ATOM
      1 C14        212.8640   198.0710   206.5250 ca         1 HZR      -0.109500
      2 C11        214.7700   196.0910   207.1050 ca         1 HZR      -0.107000
      3 C10        214.7710   197.2940   207.8430 ca         1 HZR      -0.077300
      4 C12        213.8240   195.8810   206.0860 ca         1 HZR      -0.109500
      5 C13        212.8710   196.8710   205.7960 ca         1 HZR      -0.110000
      6 C02        220.9170   193.9110   211.6330 c          1 HZR       0.567200
      7 C03        220.1200   195.0180   211.0490 cc         1 HZR      -0.086200
      8 C05        218.7440   194.9470   210.9320 cd         1 HZR       0.241000
      9 C07        216.7980   196.5240   211.0930 c6         1 HZR       0.204800
     10 C08        215.5570   196.5960   210.1740 c6         1 HZR      -0.089400
     11 C09        215.7990   197.5360   208.9600 c6         1 HZR      -0.015400
     12 C15        213.8090   198.2810   207.5450 ca         1 HZR      -0.107000
     13 C16        217.2730   197.4510   208.4550 c6         1 HZR      -0.089400
     14 C17        217.9960   196.1520   208.8890 c6         1 HZR       0.204800
     15 C18        218.0680   193.7670   211.3790 cd         1 HZR      -0.334000
     16 C19        218.7880   192.7290   211.9240 cc         1 HZR      -0.018400
     17 C22        221.1760   190.5080   211.6480 c3         1 HZR      -0.097400
     18 C23        221.9100   189.3040   212.2760 c3         1 HZR      -0.073400
     19 C24        222.1950   188.1780   211.2640 c3         1 HZR      -0.088100
     20 N06        217.9890   195.9790   210.3720 nh         1 HZR      -0.663400
     21 N20        220.1730   192.7840   212.0570 n          1 HZR      -0.273000
     22 O01        222.1390   193.9600   211.7420 o          1 HZR      -0.543000
     23 Cl4        221.0330   196.4300   210.5460 cl         1 HZR      -0.154000
     24 H1         212.1260   198.8380   206.3020 ha         1 HZR       0.112500
     25 H2         215.4980   195.3140   207.3200 ha         1 HZR       0.110500
     26 H3         213.8310   194.9510   205.5230 ha         1 HZR       0.112500
     27 H4         212.1400   196.7080   205.0070 ha         1 HZR       0.113000
     28 H7         217.0260   197.5330   211.4670 h1         1 HZR       0.049200
     29 H8         216.5590   195.9090   211.9730 h1         1 HZR       0.049200
     30 H9         214.6870   196.9450   210.7460 hc         1 HZR       0.053950
     31 H10        213.7900   199.2150   208.1020 ha         1 HZR       0.110500
     32 H11        217.3120   197.5540   207.3620 hc         1 HZR       0.053950
     33 H12        217.8380   198.3060   208.8530 hc         1 HZR       0.053950
     34 H13        217.5120   195.2860   208.4150 h1         1 HZR       0.049200
     35 H14        219.0290   196.1800   208.5150 h1         1 HZR       0.049200
     36 H15        216.9910   193.6830   211.2790 ha         1 HZR       0.200000
     37 H17        218.3620   191.7970   212.2850 h4         1 HZR       0.199000
     38 H19        220.2820   191.2340   213.4820 h1         1 HZR       0.062200
     39 H20        221.8370   191.9710   213.1120 h1         1 HZR       0.062200
     40 H21        221.7790   190.9120   210.8260 hc         1 HZR       0.054700
     41 H22        220.2280   190.1680   211.2130 hc         1 HZR       0.054700
     42 H23        221.3080   188.8990   213.0990 hc         1 HZR       0.038700
     43 H24        222.8590   189.6420   212.7100 hc         1 HZR       0.038700
     44 H25        222.7160   187.3470   211.7540 hc         1 HZR       0.034700
     45 H26        221.2610   187.7930   210.8370 hc         1 HZR       0.034700
     46 H27        222.8260   188.5430   210.4440 hc         1 HZR       0.034700
     47 H5         215.3100   195.5810   209.8330 hc         1 HZR       0.053950
     48 H6         215.6620   198.5650   209.3240 hc         1 HZR       0.051700
     49 C21        220.8920   191.6360   212.6620 c3         1 HZR       0.090000
@<TRIPOS>BOND
     1     1     5 ar  
     2     1    12 ar  
     3     1    24 1   
     4     2     3 ar  
     5     2     4 ar  
     6     2    25 1   
     7     3    11 1   
     8     3    12 ar  
     9     4     5 ar  
    10     4    26 1   
    11     5    27 1   
    12     6     7 1   
    13     6    21 1   
    14     6    22 2   
    15     7     8 2   
    16     7    23 1   
    17     8    15 1   
    18     8    20 1   
    19     9    10 1   
    20     9    20 1   
    21     9    28 1   
    22     9    29 1   
    23    10    11 1   
    24    10    30 1   
    25    10    47 1   
    26    11    13 1   
    27    11    48 1   
    28    12    31 1   
    29    13    14 1   
    30    13    32 1   
    31    13    33 1   
    32    14    20 1   
    33    14    34 1   
    34    14    35 1   
    35    15    16 2   
    36    15    36 1   
    37    16    21 1   
    38    16    37 1   
    39    17    18 1   
    40    17    40 1   
    41    17    41 1   
    42    17    49 1   
    43    18    19 1   
    44    18    42 1   
    45    18    43 1   
    46    19    44 1   
    47    19    45 1   
    48    19    46 1   
    49    21    49 1   
    50    38    49 1   
    51    39    49 1   
@<TRIPOS>SUBSTRUCTURE
     1 HZR         1 TEMP              0 ****  ****    0 ROOT
