@<TRIPOS>MOLECULE
HZR
   49    51     1     0     0
SMALL
bcc


@<TRIPOS>ATOM
      1 C14        212.9640   197.4800   206.5480 ca         1 HZR      -0.127500
      2 C11        215.1070   195.8610   207.2220 ca         1 HZR      -0.125000
      3 C10        214.9180   197.0560   207.9180 ca         1 HZR      -0.077300
      4 C12        214.2440   195.4830   206.2040 ca         1 HZR      -0.127500
      5 C13        213.1670   196.2920   205.8620 ca         1 HZR      -0.128000
      6 C02        220.8470   193.8530   211.4610 c          1 HZR       0.709700
      7 C03        220.1450   195.0180   210.9890 cc         1 HZR      -0.161800
      8 C05        218.7800   195.1810   211.0650 cd         1 HZR       0.241000
      9 C07        216.9110   196.7550   211.1670 c6         1 HZR       0.204800
     10 C08        215.7080   196.5590   210.2590 c6         1 HZR      -0.089400
     11 C09        215.8420   197.4760   209.0320 c6         1 HZR      -0.015400
     12 C15        213.8350   197.8560   207.5640 ca         1 HZR      -0.125000
     13 C16        217.3280   197.5830   208.6130 c6         1 HZR      -0.089400
     14 C17        218.1820   196.4170   209.0810 c6         1 HZR       0.204800
     15 C18        218.0470   194.1240   211.6780 cd         1 HZR      -0.284000
     16 C19        218.6980   193.0300   212.1360 cc         1 HZR       0.031600
     17 C22        220.9320   190.6440   211.4440 c3         1 HZR      -0.097400
     18 C23        221.5550   189.3720   212.0050 c3         1 HZR      -0.073400
     19 C24        221.8610   188.3490   210.9210 c3         1 HZR      -0.088100
     20 N06        218.1530   196.3000   210.5450 nh         1 HZR      -0.663400
     21 N20        220.0400   192.8860   212.0430 n          1 HZR      -0.340000
     22 O01        222.0620   193.7020   211.3950 o          1 HZR      -0.618500
     23 CL4        221.1670   196.2730   210.3900 cl         1 HZR      -0.078400
     24 H1         212.1290   198.1200   206.2920 ha         1 HZR       0.130500
     25 H2         215.9350   195.2090   207.4760 ha         1 HZR       0.128500
     26 H3         214.4110   194.5520   205.6770 ha         1 HZR       0.130500
     27 H4         212.4930   195.9970   205.0680 ha         1 HZR       0.131000
     28 H7         217.0100   197.8190   211.4090 h1         1 HZR       0.049200
     29 H8         216.7730   196.2500   212.1220 h1         1 HZR       0.049200
     30 H9         214.7870   196.7890   210.7970 hc         1 HZR       0.053950
     31 H10        213.6690   198.7890   208.0900 ha         1 HZR       0.128500
     32 H11        217.4200   197.6580   207.5290 hc         1 HZR       0.053950
     33 H12        217.7510   198.5060   209.0170 hc         1 HZR       0.053950
     34 H13        217.8330   195.4850   208.6180 h1         1 HZR       0.049200
     35 H14        219.2040   196.5700   208.7360 h1         1 HZR       0.049200
     36 H15        216.9710   194.1580   211.7540 ha         1 HZR       0.150000
     37 H17        218.1640   192.2060   212.5870 h4         1 HZR       0.149000
     38 H19        220.0030   191.2420   213.2950 h1         1 HZR       0.062200
     39 H20        221.5950   191.9350   213.0460 h1         1 HZR       0.062200
     40 H21        221.5960   191.0760   210.6910 hc         1 HZR       0.054700
     41 H22        219.9920   190.4030   210.9390 hc         1 HZR       0.054700
     42 H23        220.8810   188.9340   212.7470 hc         1 HZR       0.038700
     43 H24        222.4750   189.6250   212.5410 hc         1 HZR       0.038700
     44 H25        222.3030   187.4440   211.3400 hc         1 HZR       0.034700
     45 H26        220.9550   188.0570   210.3860 hc         1 HZR       0.034700
     46 H27        222.5610   188.7510   210.1880 hc         1 HZR       0.034700
     47 H5         215.6440   195.5090   209.9590 hc         1 HZR       0.053950
     48 H6         215.5290   198.4750   209.3490 hc         1 HZR       0.051700
     49 C21        220.6680   191.6640   212.5420 c3         1 HZR       0.090000
@<TRIPOS>BOND
     1     1     5 ar  
     2     1    12 ar  
     3     1    24 1   
     4     2     3 ar  
     5     2     4 ar  
     6     2    25 1   
     7     3    11 1   
     8     3    12 ar  
     9     4     5 ar  
    10     4    26 1   
    11     5    27 1   
    12     6     7 1   
    13     6    21 1   
    14     6    22 2   
    15     7     8 2   
    16     7    23 1   
    17     8    15 1   
    18     8    20 1   
    19     9    10 1   
    20     9    20 1   
    21     9    28 1   
    22     9    29 1   
    23    10    11 1   
    24    10    30 1   
    25    10    47 1   
    26    11    13 1   
    27    11    48 1   
    28    12    31 1   
    29    13    14 1   
    30    13    32 1   
    31    13    33 1   
    32    14    20 1   
    33    14    34 1   
    34    14    35 1   
    35    15    16 2   
    36    15    36 1   
    37    16    21 1   
    38    16    37 1   
    39    17    18 1   
    40    17    40 1   
    41    17    41 1   
    42    17    49 1   
    43    18    19 1   
    44    18    42 1   
    45    18    43 1   
    46    19    44 1   
    47    19    45 1   
    48    19    46 1   
    49    21    49 1   
    50    38    49 1   
    51    39    49 1   
@<TRIPOS>SUBSTRUCTURE
     1 HZR         1 TEMP              0 ****  ****    0 ROOT
