@<TRIPOS>MOLECULE
HZS
   47    49     1     0     0
SMALL
abcg2


@<TRIPOS>ATOM
      1 C1           3.0930    -2.0730    84.1000 c3         1 HZS       0.126600
      2 C2           3.6990    -2.8850    82.9660 c3         1 HZS       0.180300
      3 C4           4.8400    -3.7780    83.4650 c6         1 HZS      -0.103700
      4 C5           4.2860    -4.9450    84.3110 c6         1 HZS       0.188800
      5 C6           4.2130    -6.2330    83.5000 c6         1 HZS      -0.093900
      6 C7           5.5700    -6.7000    82.9430 c6         1 HZS      -0.051700
      7 C8           6.5050    -5.5070    82.7190 c6         1 HZS      -0.093900
      8 C9           5.7210    -4.2760    82.2990 c6         1 HZS       0.188800
      9 C13          1.2400    -0.5960    84.3680 ca         1 HZS       0.161100
     10 C14          0.0970    -0.0010    83.7530 ca         1 HZS      -0.058000
     11 C15         -0.7200     0.8630    84.5280 ca         1 HZS      -0.006000
     12 C16         -0.3910     1.1150    85.8820 ca         1 HZS      -0.137000
     13 C17          0.7070     0.5240    86.4360 ca         1 HZS      -0.066000
     14 C18          1.5340    -0.3370    85.6840 ca         1 HZS      -0.213000
     15 C19         -0.2470    -0.2470    82.4040 ca         1 HZS      -0.076000
     16 C20         -1.3520     0.3410    81.8480 ca         1 HZS      -0.123000
     17 C21         -2.1650     1.2000    82.6130 ca         1 HZS      -0.095000
     18 C22         -1.8530     1.4530    83.9210 ca         1 HZS      -0.109000
     19 C23          6.2340    -7.7650    83.8070 c3         1 HZS      -0.086100
     20 O3           4.2030    -2.0150    81.9710 oh         1 HZS      -0.678000
     21 O10          5.1030    -5.0730    85.4590 oh         1 HZS      -0.659000
     22 O11          6.6320    -3.2910    81.8680 oh         1 HZS      -0.659000
     23 O12          1.9640    -1.3990    83.5710 os         1 HZS      -0.363100
     24 H1           2.7910    -2.7120    84.9360 h1         1 HZS       0.053200
     25 H2           3.8340    -1.3570    84.4740 h1         1 HZS       0.053200
     26 H3           2.9180    -3.5320    82.5380 h1         1 HZS       0.041700
     27 H4           5.4890    -3.1830    84.1210 hc         1 HZS       0.090700
     28 H5           3.2580    -4.7080    84.6200 h1         1 HZS       0.024700
     29 H6           3.5110    -6.0580    82.6800 hc         1 HZS       0.052200
     30 H7           3.7570    -7.0220    84.1070 hc         1 HZS       0.052200
     31 H8           5.3730    -7.1500    81.9650 hc         1 HZS       0.042700
     32 H9           7.2390    -5.7540    81.9480 hc         1 HZS       0.052200
     33 H10          7.0690    -5.2850    83.6300 hc         1 HZS       0.052200
     34 H11          5.0610    -4.5720    81.4660 h1         1 HZS       0.024700
     35 H12         -1.0210     1.7750    86.4650 ha         1 HZS       0.116000
     36 H13          0.9610     0.7120    87.4710 ha         1 HZS       0.112000
     37 H14          2.3950    -0.7790    86.1660 ha         1 HZS       0.119000
     38 H15          0.3640    -0.9050    81.8020 ha         1 HZS       0.119000
     39 H16         -1.6040     0.1440    80.8140 ha         1 HZS       0.113000
     40 H17         -3.0360     1.6570    82.1640 ha         1 HZS       0.113000
     41 H18         -2.4760     2.1120    84.5150 ha         1 HZS       0.114000
     42 H19          5.5990    -8.6470    83.9070 hc         1 HZS       0.035033
     43 H20          7.1810    -8.0880    83.3680 hc         1 HZS       0.035033
     44 H21          6.4460    -7.3880    84.8080 hc         1 HZS       0.035033
     45 H22          3.4680    -1.6130    81.4960 ho         1 HZS       0.466000
     46 H23          4.7960    -5.8370    85.9590 ho         1 HZS       0.455000
     47 H24          6.1010    -2.5260    81.6180 ho         1 HZS       0.455000
@<TRIPOS>BOND
     1     1     2 1   
     2     1    23 1   
     3     1    24 1   
     4     1    25 1   
     5     2     3 1   
     6     2    20 1   
     7     2    26 1   
     8     3     4 1   
     9     3     8 1   
    10     3    27 1   
    11     4     5 1   
    12     4    21 1   
    13     4    28 1   
    14     5     6 1   
    15     5    29 1   
    16     5    30 1   
    17     6     7 1   
    18     6    19 1   
    19     6    31 1   
    20     7     8 1   
    21     7    32 1   
    22     7    33 1   
    23     8    22 1   
    24     8    34 1   
    25     9    10 ar  
    26     9    14 ar  
    27     9    23 1   
    28    10    11 ar  
    29    10    15 ar  
    30    11    12 ar  
    31    11    18 ar  
    32    12    13 ar  
    33    12    35 1   
    34    13    14 ar  
    35    13    36 1   
    36    14    37 1   
    37    15    16 ar  
    38    15    38 1   
    39    16    17 ar  
    40    16    39 1   
    41    17    18 ar  
    42    17    40 1   
    43    18    41 1   
    44    19    42 1   
    45    19    43 1   
    46    19    44 1   
    47    20    45 1   
    48    21    46 1   
    49    22    47 1   
@<TRIPOS>SUBSTRUCTURE
     1 HZS         1 TEMP              0 ****  ****    0 ROOT
