@<TRIPOS>MOLECULE
HZS
   47    49     1     0     0
SMALL
No Charge or Current Charge


@<TRIPOS>ATOM
      1 C1           2.7950    -2.3570    84.0740 c3         1 HZS       0.126600
      2 C2           3.4830    -3.0940    82.8880 c3         1 HZS       0.180300
      3 C4           4.7400    -3.9430    83.2880 c6         1 HZS      -0.103700
      4 C5           4.4110    -5.0530    84.3530 c6         1 HZS       0.188800
      5 C6           4.4930    -6.4910    83.7710 c6         1 HZS      -0.093900
      6 C7           5.8630    -6.8300    83.0980 c6         1 HZS      -0.051700
      7 C8           6.5260    -5.5770    82.4540 c6         1 HZS      -0.093900
      8 C9           5.4640    -4.5370    82.0340 c6         1 HZS       0.188800
      9 C13          1.0240    -0.6410    84.3320 ca         1 HZS       0.161100
     10 C14          0.0550     0.1930    83.7240 ca         1 HZS      -0.058000
     11 C15         -0.7560     1.0290    84.5290 ca         1 HZS      -0.006000
     12 C16         -0.6000     1.0280    85.9260 ca         1 HZS      -0.137000
     13 C17          0.3590     0.2010    86.5290 ca         1 HZS      -0.066000
     14 C18          1.1680    -0.6310    85.7390 ca         1 HZS      -0.213000
     15 C19         -0.1210     0.2080    82.3210 ca         1 HZS      -0.076000
     16 C20         -1.0880     1.0430    81.7350 ca         1 HZS      -0.123000
     17 C21         -1.8870     1.8700    82.5390 ca         1 HZS      -0.095000
     18 C22         -1.7220     1.8630    83.9340 ca         1 HZS      -0.109000
     19 C23          6.8460    -7.5620    84.0530 c3         1 HZS      -0.086100
     20 O3           3.8160    -2.1100    81.8930 oh         1 HZS      -0.678000
     21 O10          5.2790    -4.9230    85.4840 oh         1 HZS      -0.659000
     22 O11          6.0730    -3.4850    81.2890 oh         1 HZS      -0.659000
     23 O12          1.8120    -1.4490    83.5310 os         1 HZS      -0.363100
     24 H1           2.3150    -3.0840    84.7400 h1         1 HZS       0.053200
     25 H2           3.5540    -1.8080    84.6470 h1         1 HZS       0.053200
     26 H3           2.7440    -3.7890    82.4670 h1         1 HZS       0.041700
     27 H4           5.4290    -3.2280    83.7570 hc         1 HZS       0.090700
     28 H5           3.3770    -4.9220    84.7010 h1         1 HZS       0.024700
     29 H6           3.6970    -6.5980    83.0200 hc         1 HZS       0.052200
     30 H7           4.2510    -7.2310    84.5460 hc         1 HZS       0.052200
     31 H8           5.6540    -7.5500    82.2940 hc         1 HZS       0.042700
     32 H9           7.1240    -5.8840    81.5850 hc         1 HZS       0.052200
     33 H10          7.2260    -5.1090    83.1600 hc         1 HZS       0.052200
     34 H11          4.7200    -5.0420    81.4010 h1         1 HZS       0.024700
     35 H12         -1.2220     1.6690    86.5470 ha         1 HZS       0.116000
     36 H13          0.4740     0.2050    87.6110 ha         1 HZS       0.112000
     37 H14          1.9020    -1.2580    86.2370 ha         1 HZS       0.119000
     38 H15          0.4860    -0.4250    81.6790 ha         1 HZS       0.119000
     39 H16         -1.2160     1.0480    80.6540 ha         1 HZS       0.113000
     40 H17         -2.6350     2.5160    82.0830 ha         1 HZS       0.113000
     41 H18         -2.3460     2.5050    84.5510 ha         1 HZS       0.114000
     42 H19          6.4020    -8.4820    84.4510 hc         1 HZS       0.035033
     43 H20          7.7670    -7.8430    83.5280 hc         1 HZS       0.035033
     44 H21          7.1290    -6.9330    84.9050 hc         1 HZS       0.035033
     45 H22          3.1000    -1.4350    81.9570 ho         1 HZS       0.466000
     46 H23          5.0400    -5.6440    86.1070 ho         1 HZS       0.455000
     47 H24          5.3850    -2.7700    81.3110 ho         1 HZS       0.455000
@<TRIPOS>BOND
     1     1     2 1   
     2     1    23 1   
     3     1    24 1   
     4     1    25 1   
     5     2     3 1   
     6     2    20 1   
     7     2    26 1   
     8     3     4 1   
     9     3     8 1   
    10     3    27 1   
    11     4     5 1   
    12     4    21 1   
    13     4    28 1   
    14     5     6 1   
    15     5    29 1   
    16     5    30 1   
    17     6     7 1   
    18     6    19 1   
    19     6    31 1   
    20     7     8 1   
    21     7    32 1   
    22     7    33 1   
    23     8    22 1   
    24     8    34 1   
    25     9    10 ar  
    26     9    14 ar  
    27     9    23 1   
    28    10    11 ar  
    29    10    15 ar  
    30    11    12 ar  
    31    11    18 ar  
    32    12    13 ar  
    33    12    35 1   
    34    13    14 ar  
    35    13    36 1   
    36    14    37 1   
    37    15    16 ar  
    38    15    38 1   
    39    16    17 ar  
    40    16    39 1   
    41    17    18 ar  
    42    17    40 1   
    43    18    41 1   
    44    19    42 1   
    45    19    43 1   
    46    19    44 1   
    47    20    45 1   
    48    21    46 1   
    49    22    47 1   
@<TRIPOS>SUBSTRUCTURE
     1 HZS         1 TEMP              0 ****  ****    0 ROOT
