@<TRIPOS>MOLECULE
HZT
   36    38     1     0     0
SMALL
No Charge or Current Charge


@<TRIPOS>ATOM
      1 C1           2.9950     0.4740     0.2080 ca         1 HZT      -0.073500
      2 C2           4.2760    -0.0430    -0.0540 ca         1 HZT      -0.153000
      3 C3           4.4530    -0.9850    -1.0780 ca         1 HZT       0.179000
      4 C10          0.2680    -0.7030     1.8730 c3         1 HZT       0.192500
      5 C11         -0.5110    -1.8830     1.3010 cc         1 HZT       0.384800
      6 C14         -1.9400    -3.4330     0.8880 cd         1 HZT       0.518900
      7 O17         -2.0010     0.7960     2.5520 o          1 HZT      -0.533500
      8 C21         -3.5770     1.9310    -2.0410 cc         1 HZT      -0.216000
      9 C22         -3.8790     0.7100    -1.4900 cd         1 HZT      -0.161000
     10 C4           3.3590    -1.4110    -1.8450 ca         1 HZT      -0.153000
     11 C5           2.0760    -0.8960    -1.5850 ca         1 HZT      -0.073500
     12 C6           1.8850     0.0410    -0.5480 ca         1 HZT      -0.123300
     13 F7           5.6840    -1.4800    -1.3300 f          1 HZT      -0.175000
     14 N9           0.1270     0.6140     1.1650 n3         1 HZT      -0.764500
     15 N12         -0.0510    -2.7200     0.3180 na         1 HZT      -0.185700
     16 N13         -0.9540    -3.7040     0.0410 nc         1 HZT      -0.527800
     17 N15         -1.6950    -2.3280     1.6870 nd         1 HZT      -0.697000
     18 S16         -1.2810     1.5160     1.4980 sy         1 HZT       1.225600
     19 C18         -2.3340     1.4630     0.0750 cc         1 HZT      -0.485500
     20 O19         -0.8350     2.8970     1.7030 o          1 HZT      -0.533500
     21 S20         -2.4010     2.7990    -1.0570 ss         1 HZT       0.329000
     22 C23         -3.1760     0.4420    -0.2850 cd         1 HZT       0.026000
     23 H1           2.8610     1.2070     1.0020 ha         1 HZT       0.124000
     24 H2           5.1300     0.2870     0.5320 ha         1 HZT       0.136000
     25 H3           0.4730     1.6270    -0.6650 h1         1 HZT       0.060700
     26 H4          -0.2470     0.0280    -0.8440 h1         1 HZT       0.060700
     27 H5           0.0040    -0.6050     2.9350 h1         1 HZT       0.092200
     28 H6           1.3240    -0.9990     1.8780 h1         1 HZT       0.092200
     29 H7          -2.8540    -4.0130     0.9680 h5         1 HZT       0.067100
     30 H8          -3.9570     2.3910    -2.9440 h4         1 HZT       0.152000
     31 H9          -4.5860     0.0140    -1.9320 ha         1 HZT       0.140000
     32 H10          3.5060    -2.1360    -2.6420 ha         1 HZT       0.136000
     33 H11          1.2350    -1.2230    -2.1940 ha         1 HZT       0.124000
     34 H12          0.8450    -2.6470    -0.1550 hn         1 HZT       0.380000
     35 H13         -3.2950    -0.4770     0.2860 ha         1 HZT       0.168000
     36 C8           0.4920     0.6030    -0.2680 c3         1 HZT       0.263100
@<TRIPOS>BOND
     1     1     2 ar  
     2     1    12 ar  
     3     1    23 1   
     4     2     3 ar  
     5     2    24 1   
     6     3    10 ar  
     7     3    13 1   
     8     4     5 1   
     9     4    14 1   
    10     4    27 1   
    11     4    28 1   
    12     5    15 1   
    13     5    17 2   
    14     6    16 2   
    15     6    17 1   
    16     6    29 1   
    17     7    18 2   
    18     8     9 2   
    19     8    21 1   
    20     8    30 1   
    21     9    22 1   
    22     9    31 1   
    23    10    11 ar  
    24    10    32 1   
    25    11    12 ar  
    26    11    33 1   
    27    12    36 1   
    28    14    18 1   
    29    14    36 1   
    30    15    16 1   
    31    15    34 1   
    32    18    19 1   
    33    18    20 2   
    34    19    21 1   
    35    19    22 2   
    36    22    35 1   
    37    25    36 1   
    38    26    36 1   
@<TRIPOS>SUBSTRUCTURE
     1 HZT         1 TEMP              0 ****  ****    0 ROOT
