@<TRIPOS>MOLECULE
HZT
   36    38     1     0     0
SMALL
abcg2


@<TRIPOS>ATOM
      1 C1           2.9780     0.7560     0.1130 ca         1 HZT      -0.073500
      2 C2           4.3370     0.4900     0.1120 ca         1 HZT      -0.153000
      3 C3           4.8010    -0.5820    -0.6310 ca         1 HZT       0.179000
      4 C10          0.1400    -1.0430     1.4560 c3         1 HZT       0.192500
      5 C11         -0.7700    -2.0810     0.8890 cc         1 HZT       0.384800
      6 C14         -2.4030    -3.2790     0.3690 cd         1 HZT       0.518900
      7 O17         -1.3390     1.1130     2.5920 o          1 HZT      -0.533500
      8 C21         -3.8990     1.9460    -1.5800 cc         1 HZT      -0.216000
      9 C22         -4.3150     0.9240    -0.7770 cd         1 HZT      -0.161000
     10 C4           3.9560    -1.3860    -1.3670 ca         1 HZT      -0.153000
     11 C5           2.5960    -1.1020    -1.3530 ca         1 HZT      -0.073500
     12 C6           2.0950    -0.0350    -0.6190 ca         1 HZT      -0.123300
     13 F7           6.1170    -0.8460    -0.6320 f          1 HZT      -0.175000
     14 N9           0.0970     0.2310     0.7580 n3         1 HZT      -0.764500
     15 N12         -0.3840    -3.0330     0.0330 na         1 HZT      -0.185700
     16 N13         -1.4120    -3.8080    -0.3080 nc         1 HZT      -0.527800
     17 N15         -2.0580    -2.2150     1.1240 nd         1 HZT      -0.697000
     18 S16         -0.9050     1.4430     1.2470 sy         1 HZT       1.225600
     19 C18         -2.2990     1.4500     0.1940 cc         1 HZT      -0.485500
     20 O19         -0.2220     2.6970     0.9770 o          1 HZT      -0.533500
     21 S20         -2.3890     2.5770    -1.0990 ss         1 HZT       0.329000
     22 C23         -3.3890     0.6320     0.2530 cd         1 HZT       0.026000
     23 H1           2.6000     1.5900     0.6910 ha         1 HZT       0.124000
     24 H2           5.0240     1.1060     0.6770 ha         1 HZT       0.136000
     25 H3           0.4600     1.2690    -1.0150 h1         1 HZT       0.060700
     26 H4           0.0770    -0.4200    -1.2520 h1         1 HZT       0.060700
     27 H5          -0.0990    -0.8940     2.5060 h1         1 HZT       0.092200
     28 H6           1.1720    -1.3970     1.4220 h1         1 HZT       0.092200
     29 H7          -3.4060    -3.6740     0.3220 h5         1 HZT       0.067100
     30 H8          -4.4130     2.3700    -2.4290 h4         1 HZT       0.152000
     31 H9          -5.2510     0.4020    -0.9120 ha         1 HZT       0.140000
     32 H10          4.3450    -2.2200    -1.9360 ha         1 HZT       0.136000
     33 H11          1.9240    -1.7220    -1.9340 ha         1 HZT       0.124000
     34 H12          0.5420    -3.2240    -0.3220 hn         1 HZT       0.380000
     35 H13         -3.5110    -0.1520     0.9860 ha         1 HZT       0.168000
     36 C8           0.6220     0.2730    -0.6030 c3         1 HZT       0.263100
@<TRIPOS>BOND
     1     1     2 ar  
     2     1    12 ar  
     3     1    23 1   
     4     2     3 ar  
     5     2    24 1   
     6     3    10 ar  
     7     3    13 1   
     8     4     5 1   
     9     4    14 1   
    10     4    27 1   
    11     4    28 1   
    12     5    15 1   
    13     5    17 2   
    14     6    16 2   
    15     6    17 1   
    16     6    29 1   
    17     7    18 2   
    18     8     9 2   
    19     8    21 1   
    20     8    30 1   
    21     9    22 1   
    22     9    31 1   
    23    10    11 ar  
    24    10    32 1   
    25    11    12 ar  
    26    11    33 1   
    27    12    36 1   
    28    14    18 1   
    29    14    36 1   
    30    15    16 1   
    31    15    34 1   
    32    18    19 1   
    33    18    20 2   
    34    19    21 1   
    35    19    22 2   
    36    22    35 1   
    37    25    36 1   
    38    26    36 1   
@<TRIPOS>SUBSTRUCTURE
     1 HZT         1 TEMP              0 ****  ****    0 ROOT
