@<TRIPOS>MOLECULE
HZU
   52    53     1     0     0
SMALL
abcg2


@<TRIPOS>ATOM
      1 C10        -28.0860    10.5950   -25.6370 ca         1 HZU      -0.099900
      2 C13        -28.8020     7.0800   -25.8660 c3         1 HZU      -0.081400
      3 C17        -29.2900     4.5080   -29.2770 ca         1 HZU      -0.210000
      4 C20        -31.8550     4.4820   -30.2890 ca         1 HZU      -0.084000
      5 C21        -31.6000     5.2370   -29.1510 ca         1 HZU      -0.059300
      6 C22        -32.7330     5.9730   -28.4880 c3         1 HZU      -0.001100
      7 C24        -34.4740     7.7680   -28.7390 c3         1 HZU       0.217600
      8 C26        -31.9850     8.3740   -28.9160 c          1 HZU       0.724000
      9 C01        -28.8630    11.2790   -28.9540 c3         1 HZU      -0.074100
     10 C02        -29.4270    11.5380   -27.5570 c3         1 HZU      -0.145700
     11 C03        -28.3330    11.6120   -26.5330 ca         1 HZU       0.186300
     12 C05        -26.5840    12.7910   -25.6830 ca         1 HZU       0.385900
     13 C08        -26.9990    10.7670   -24.7500 ca         1 HZU       0.383900
     14 C12        -28.5430     8.4380   -26.4950 c3         1 HZU       0.149600
     15 C14        -28.8150     5.9760   -26.9050 c3         1 HZU       0.172600
     16 C16        -30.2870     5.2550   -28.6540 ca         1 HZU       0.172100
     17 C18        -29.5790     3.7660   -30.4160 ca         1 HZU      -0.092000
     18 C19        -30.8630     3.7540   -30.9340 ca         1 HZU      -0.160000
     19 C23        -33.0870     7.3180   -29.1540 c3         1 HZU      -0.220700
     20 F25        -34.6770     7.7080   -27.3590 f          1 HZU      -0.282000
     21 N04        -27.5790    12.7200   -26.5570 nb         1 HZU      -0.280000
     22 N06        -25.7900    13.8940   -25.7350 nv         1 HZU      -1.060900
     23 N07        -26.2590    11.8690   -24.7750 nb         1 HZU      -0.339000
     24 N09        -26.6740     9.8020   -23.8680 nv         1 HZU      -1.072900
     25 O11        -28.8320     9.4560   -25.5390 os         1 HZU      -0.346100
     26 O15        -30.0700     6.0170   -27.5620 os         1 HZU      -0.315100
     27 O27        -32.0600     9.0310   -27.8560 o          1 HZU      -0.728000
     28 O28        -31.1090     8.4690   -29.7980 o          1 HZU      -0.728000
     29 H132       -28.0210     6.8640   -25.1340 hc         1 HZU       0.051700
     30 H131       -29.7530     7.0810   -25.3270 hc         1 HZU       0.051700
     31 H171       -28.2790     4.4930   -28.8910 ha         1 HZU       0.101000
     32 H201       -32.8680     4.4580   -30.6740 ha         1 HZU       0.102000
     33 H221       -33.6150     5.3270   -28.5350 hc         1 HZU       0.038700
     34 H222       -32.5270     6.1300   -27.4290 hc         1 HZU       0.038700
     35 H241       -35.2230     7.1160   -29.1950 h1         1 HZU       0.010700
     36 H242       -34.6720     8.7930   -29.0590 h1         1 HZU       0.010700
     37 H013       -29.6670    11.2200   -29.6860 hc         1 HZU       0.036700
     38 H011       -28.1840    12.0750   -29.2570 hc         1 HZU       0.036700
     39 H012       -28.3140    10.3370   -28.9900 hc         1 HZU       0.036700
     40 H021       -29.9550    12.4950   -27.5560 hc         1 HZU       0.085700
     41 H022       -30.1590    10.7690   -27.3120 hc         1 HZU       0.085700
     42 H121       -29.1660     8.5820   -27.3830 h1         1 HZU       0.060700
     43 H122       -27.4980     8.5010   -26.8170 h1         1 HZU       0.060700
     44 H141       -27.9910     6.1250   -27.6130 h1         1 HZU       0.021700
     45 H142       -28.6690     4.9970   -26.4370 h1         1 HZU       0.021700
     46 H181       -28.7900     3.1950   -30.8890 ha         1 HZU       0.090000
     47 H191       -31.0960     3.1750   -31.8180 ha         1 HZU       0.095000
     48 H231       -33.1610     7.1380   -30.2330 hc         1 HZU       0.035700
     49 H062       -26.1540    14.6990   -26.2150 hn         1 HZU       0.473000
     50 H061       -25.2160    14.0900   -24.9330 hn         1 HZU       0.473000
     51 H091       -26.0190    10.0250   -23.1380 hn         1 HZU       0.484500
     52 H092       -27.3320     9.0660   -23.6760 hn         1 HZU       0.484500
@<TRIPOS>BOND
     1     1    11 ar  
     2     1    13 ar  
     3     1    25 1   
     4     2    14 1   
     5     2    15 1   
     6     2    29 1   
     7     2    30 1   
     8     3    16 ar  
     9     3    17 ar  
    10     3    31 1   
    11     4     5 ar  
    12     4    18 ar  
    13     4    32 1   
    14     5     6 1   
    15     5    16 ar  
    16     6    19 1   
    17     6    33 1   
    18     6    34 1   
    19     7    19 1   
    20     7    20 1   
    21     7    35 1   
    22     7    36 1   
    23     8    19 1   
    24     8    27 1   
    25     8    28 1   
    26     9    10 1   
    27     9    37 1   
    28     9    38 1   
    29     9    39 1   
    30    10    11 1   
    31    10    40 1   
    32    10    41 1   
    33    11    21 ar  
    34    12    21 ar  
    35    12    22 1   
    36    12    23 ar  
    37    13    23 ar  
    38    13    24 1   
    39    14    25 1   
    40    14    42 1   
    41    14    43 1   
    42    15    26 1   
    43    15    44 1   
    44    15    45 1   
    45    16    26 1   
    46    17    18 ar  
    47    17    46 1   
    48    18    47 1   
    49    19    48 1   
    50    22    49 1   
    51    22    50 1   
    52    24    51 1   
    53    24    52 1   
@<TRIPOS>SUBSTRUCTURE
     1 HZU         1 TEMP              0 ****  ****    0 ROOT
