@<TRIPOS>MOLECULE
HZU
   52    53     1     0     0
SMALL
No Charge or Current Charge


@<TRIPOS>ATOM
      1 C10        -27.8150    10.5770   -25.4070 ca         1 HZU      -0.099900
      2 C13        -28.5380     7.0030   -25.9840 c3         1 HZU      -0.081400
      3 C17        -29.3950     4.3340   -29.3770 ca         1 HZU      -0.210000
      4 C20        -32.0820     4.3460   -30.1840 ca         1 HZU      -0.084000
      5 C21        -31.6680     5.2170   -29.1550 ca         1 HZU      -0.059300
      6 C22        -32.7130     6.1220   -28.4920 c3         1 HZU      -0.001100
      7 C24        -34.5390     7.9070   -28.8920 c3         1 HZU       0.217600
      8 C26        -32.2230     8.2420   -29.8630 c          1 HZU       0.724000
      9 C01        -28.8030    11.1350   -28.7800 c3         1 HZU      -0.074100
     10 C02        -29.3160    11.4570   -27.3600 c3         1 HZU      -0.145700
     11 C03        -28.1910    11.5870   -26.3370 ca         1 HZU       0.186300
     12 C05        -26.6390    12.9850   -25.3920 ca         1 HZU       0.385900
     13 C08        -26.8140    10.9300   -24.4740 ca         1 HZU       0.383900
     14 C12        -28.4610     8.4530   -26.5000 c3         1 HZU       0.149600
     15 C14        -28.6130     5.9580   -27.1130 c3         1 HZU       0.172600
     16 C16        -30.3110     5.2070   -28.7430 ca         1 HZU       0.172100
     17 C18        -29.8220     3.4810   -30.4070 ca         1 HZU      -0.092000
     18 C19        -31.1650     3.4860   -30.8080 ca         1 HZU      -0.160000
     19 C23        -33.2830     7.2060   -29.4490 c3         1 HZU      -0.220700
     20 F25        -34.3200     8.4190   -27.6560 f          1 HZU      -0.282000
     21 N04        -27.5870    12.7960   -26.3180 nb         1 HZU      -0.280000
     22 N06        -26.0440    14.1990   -25.3840 nv         1 HZU      -1.060900
     23 N07        -26.2200    12.1270   -24.4610 nb         1 HZU      -0.339000
     24 N09        -26.3730    10.0680   -23.5160 nv         1 HZU      -1.072900
     25 O11        -28.3870     9.3110   -25.3460 os         1 HZU      -0.346100
     26 O15        -29.9110     6.0480   -27.7200 os         1 HZU      -0.315100
     27 O27        -31.6850     8.9200   -29.0020 o          1 HZU      -0.728000
     28 O28        -31.9670     8.3450   -31.0540 o          1 HZU      -0.728000
     29 H132       -27.6470     6.7970   -25.3800 hc         1 HZU       0.051700
     30 H131       -29.4070     6.8880   -25.3250 hc         1 HZU       0.051700
     31 H171       -28.3490     4.3050   -29.0880 ha         1 HZU       0.101000
     32 H201       -33.1230     4.3320   -30.5000 ha         1 HZU       0.102000
     33 H221       -33.5430     5.4940   -28.1460 hc         1 HZU       0.038700
     34 H222       -32.3200     6.6030   -27.5890 hc         1 HZU       0.038700
     35 H241       -35.3630     7.1850   -28.8190 h1         1 HZU       0.010700
     36 H242       -34.8480     8.7200   -29.5610 h1         1 HZU       0.010700
     37 H013       -29.6420    11.0540   -29.4810 hc         1 HZU       0.036700
     38 H011       -28.1360    11.9280   -29.1390 hc         1 HZU       0.036700
     39 H012       -28.2500    10.1900   -28.7980 hc         1 HZU       0.036700
     40 H021       -29.8790    12.3970   -27.4040 hc         1 HZU       0.085700
     41 H022       -30.0480    10.7070   -27.0440 hc         1 HZU       0.085700
     42 H121       -29.3450     8.6700   -27.1120 h1         1 HZU       0.060700
     43 H122       -27.5640     8.5630   -27.1240 h1         1 HZU       0.060700
     44 H141       -27.8180     6.1500   -27.8450 h1         1 HZU       0.021700
     45 H142       -28.4630     4.9580   -26.6870 h1         1 HZU       0.021700
     46 H181       -29.1130     2.8130   -30.8910 ha         1 HZU       0.090000
     47 H191       -31.4970     2.8210   -31.6020 ha         1 HZU       0.095000
     48 H231       -33.6150     6.7000   -30.3630 hc         1 HZU       0.035700
     49 H062       -26.4720    14.9520   -25.9170 hn         1 HZU       0.473000
     50 H061       -25.4850    14.4620   -24.5770 hn         1 HZU       0.473000
     51 H091       -25.8490    10.4450   -22.7300 hn         1 HZU       0.484500
     52 H092       -26.9230     9.2300   -23.3480 hn         1 HZU       0.484500
@<TRIPOS>BOND
     1     1    11 ar  
     2     1    13 ar  
     3     1    25 1   
     4     2    14 1   
     5     2    15 1   
     6     2    29 1   
     7     2    30 1   
     8     3    16 ar  
     9     3    17 ar  
    10     3    31 1   
    11     4     5 ar  
    12     4    18 ar  
    13     4    32 1   
    14     5     6 1   
    15     5    16 ar  
    16     6    19 1   
    17     6    33 1   
    18     6    34 1   
    19     7    19 1   
    20     7    20 1   
    21     7    35 1   
    22     7    36 1   
    23     8    19 1   
    24     8    27 1   
    25     8    28 1   
    26     9    10 1   
    27     9    37 1   
    28     9    38 1   
    29     9    39 1   
    30    10    11 1   
    31    10    40 1   
    32    10    41 1   
    33    11    21 ar  
    34    12    21 ar  
    35    12    22 1   
    36    12    23 ar  
    37    13    23 ar  
    38    13    24 1   
    39    14    25 1   
    40    14    42 1   
    41    14    43 1   
    42    15    26 1   
    43    15    44 1   
    44    15    45 1   
    45    16    26 1   
    46    17    18 ar  
    47    17    46 1   
    48    18    47 1   
    49    19    48 1   
    50    22    49 1   
    51    22    50 1   
    52    24    51 1   
    53    24    52 1   
@<TRIPOS>SUBSTRUCTURE
     1 HZU         1 TEMP              0 ****  ****    0 ROOT
