@<TRIPOS>MOLECULE
HZV
   72    75     1     0     0
SMALL
No Charge or Current Charge


@<TRIPOS>ATOM
      1 C02          3.3250     3.1170    -1.4960 c          1 HZV       0.713600
      2 C04          2.7380     3.0420    -0.0950 ca         1 HZV      -0.080600
      3 C05          2.0560     1.9110     0.4140 ca         1 HZV      -0.205000
      4 C06          1.5580     1.9140     1.7050 ca         1 HZV       0.331800
      5 C07          0.9380     0.6740     2.0830 cc         1 HZV      -0.287800
      6 C08          1.0030    -0.2650     1.0640 cd         1 HZV      -0.174600
      7 C09          0.5570    -1.7070     1.1150 c3         1 HZV       0.287800
      8 C10         -0.4570    -2.0620     0.0240 ca         1 HZV      -0.040300
      9 C11         -0.0430    -2.5240    -1.2430 ca         1 HZV      -0.092000
     10 C12         -0.9920    -2.8240    -2.2320 ca         1 HZV      -0.091000
     11 C13         -2.3610    -2.6660    -1.9640 ca         1 HZV      -0.173000
     12 C14         -2.7970    -2.2090    -0.7080 ca         1 HZV      -0.033000
     13 C16         -4.9620    -1.7550     0.6050 c          1 HZV       0.604100
     14 C17         -6.4730    -1.6970     0.3400 c3         1 HZV      -0.161400
     15 C18         -7.0000    -0.2410     0.3590 c3         1 HZV      -0.067400
     16 C19         -8.5210    -0.1480     0.0940 c3         1 HZV       0.164800
     17 C21         -8.5510     2.2110    -0.6970 c3         1 HZV       0.149600
     18 C22        -10.5800     1.1870     0.2260 c3         1 HZV       0.149600
     19 C24         -1.8350    -1.9020     0.2810 ca         1 HZV      -0.120000
     20 C27          4.0270    -2.9850     1.6800 c3         1 HZV       0.175800
     21 C29          5.9950    -2.6340     0.2310 c6         1 HZV       0.176300
     22 C30          6.6480    -1.7320    -0.8440 c6         1 HZV      -0.080900
     23 C31          6.8790    -0.3020    -0.3030 c6         1 HZV      -0.067400
     24 C32          5.5580     0.2700     0.2560 c6         1 HZV      -0.080900
     25 C33          4.9330    -0.6900     1.2990 c6         1 HZV       0.176300
     26 C36          2.3180     4.0420     2.0980 ca         1 HZV       0.303900
     27 C37          2.8610     4.1310     0.8000 ca         1 HZV      -0.146000
     28 N15         -4.1980    -2.0670    -0.5130 ns         1 HZV      -0.146000
     29 N20         -9.1000     1.2100     0.2500 n3         1 HZV      -0.709600
     30 N28          4.7210    -2.0570     0.7380 n3         1 HZV      -0.704600
     31 N35          1.6720     2.9460     2.5590 nb         1 HZV      -0.676000
     32 O01          2.7450     2.5550    -2.4140 o          1 HZV      -0.705500
     33 O03          4.3320     3.7940    -1.6600 o          1 HZV      -0.705500
     34 O23         -4.5050    -1.5720     1.7280 o          1 HZV      -0.573100
     35 O25          1.7250    -2.5390     0.9820 os         1 HZV      -0.447000
     36 S34          1.7760     0.3630    -0.4220 ss         1 HZV       0.252400
     37 H1           0.5190     0.4760     3.0640 ha         1 HZV       0.191000
     38 H2           0.0830    -1.8920     2.0890 h1         1 HZV       0.036700
     39 H3           1.0150    -2.6470    -1.4640 ha         1 HZV       0.143000
     40 H4          -0.6650    -3.1790    -3.2070 ha         1 HZV       0.108000
     41 H5          -3.0860    -2.9020    -2.7400 ha         1 HZV       0.096000
     42 H6          -6.7000    -2.1340    -0.6410 hc         1 HZV       0.052200
     43 H7          -6.9890    -2.2630     1.1250 hc         1 HZV       0.052200
     44 H8          -6.7820     0.2120     1.3350 hc         1 HZV       0.066200
     45 H9          -6.4570     0.3410    -0.3960 hc         1 HZV       0.066200
     46 H10         -8.7260    -0.5270    -0.9170 h1         1 HZV       0.023700
     47 H11         -9.0190    -0.8290     0.7970 h1         1 HZV       0.023700
     48 H12         -8.7320     1.9070    -1.7370 h1         1 HZV       0.029200
     49 H13         -9.0230     3.1910    -0.5400 h1         1 HZV       0.029200
     50 H14         -7.4710     2.3420    -0.5560 h1         1 HZV       0.029200
     51 H15        -10.9710     0.5050     0.9930 h1         1 HZV       0.029200
     52 H16        -10.9880     2.1870     0.4260 h1         1 HZV       0.029200
     53 H17        -10.9510     0.8540    -0.7530 h1         1 HZV       0.029200
     54 H18         -2.1350    -1.5290     1.2550 ha         1 HZV       0.146000
     55 H19          2.2260    -3.2950     2.8660 h1         1 HZV       0.027700
     56 H20          2.6460    -1.5950     2.6340 h1         1 HZV       0.027700
     57 H21          4.6400    -3.1090     2.5820 h1         1 HZV       0.026200
     58 H22          3.9460    -3.9780     1.2180 h1         1 HZV       0.026200
     59 H23          5.8130    -3.6260    -0.2070 h1         1 HZV       0.016950
     60 H24          6.7030    -2.7720     1.0620 h1         1 HZV       0.016950
     61 H25          7.6010    -2.1700    -1.1690 hc         1 HZV       0.059450
     62 H26          6.0010    -1.6940    -1.7310 hc         1 HZV       0.059450
     63 H27          7.6400    -0.3230     0.4890 hc         1 HZV       0.030200
     64 H28          7.2670     0.3470    -1.1000 hc         1 HZV       0.030200
     65 H29          5.7340     1.2520     0.7130 hc         1 HZV       0.059450
     66 H30          4.8480     0.4300    -0.5660 hc         1 HZV       0.059450
     67 H31          5.5910    -0.7410     2.1790 h1         1 HZV       0.016950
     68 H32          3.9830    -0.2510     1.6320 h1         1 HZV       0.016950
     69 H33          2.4070     4.8770     2.7920 h4         1 HZV      -0.008900
     70 H34          3.3700     5.0420     0.4980 ha         1 HZV       0.131000
     71 H35         -4.7420    -2.2160    -1.3540 hn         1 HZV       0.140000
     72 C26          2.5980    -2.5690     2.1330 c3         1 HZV       0.165600
@<TRIPOS>BOND
     1     1     2 1   
     2     1    32 1   
     3     1    33 1   
     4     2     3 ar  
     5     2    27 ar  
     6     3     4 ar  
     7     3    36 1   
     8     4     5 1   
     9     4    31 ar  
    10     5     6 2   
    11     5    37 1   
    12     6     7 1   
    13     6    36 1   
    14     7     8 1   
    15     7    35 1   
    16     7    38 1   
    17     8     9 ar  
    18     8    19 ar  
    19     9    10 ar  
    20     9    39 1   
    21    10    11 ar  
    22    10    40 1   
    23    11    12 ar  
    24    11    41 1   
    25    12    19 ar  
    26    12    28 1   
    27    13    14 1   
    28    13    28 1   
    29    13    34 2   
    30    14    15 1   
    31    14    42 1   
    32    14    43 1   
    33    15    16 1   
    34    15    44 1   
    35    15    45 1   
    36    16    29 1   
    37    16    46 1   
    38    16    47 1   
    39    17    29 1   
    40    17    48 1   
    41    17    49 1   
    42    17    50 1   
    43    18    29 1   
    44    18    51 1   
    45    18    52 1   
    46    18    53 1   
    47    19    54 1   
    48    20    30 1   
    49    20    57 1   
    50    20    58 1   
    51    20    72 1   
    52    21    22 1   
    53    21    30 1   
    54    21    59 1   
    55    21    60 1   
    56    22    23 1   
    57    22    61 1   
    58    22    62 1   
    59    23    24 1   
    60    23    63 1   
    61    23    64 1   
    62    24    25 1   
    63    24    65 1   
    64    24    66 1   
    65    25    30 1   
    66    25    67 1   
    67    25    68 1   
    68    26    27 ar  
    69    26    31 ar  
    70    26    69 1   
    71    27    70 1   
    72    28    71 1   
    73    35    72 1   
    74    55    72 1   
    75    56    72 1   
@<TRIPOS>SUBSTRUCTURE
     1 HZV         1 TEMP              0 ****  ****    0 ROOT
