@<TRIPOS>MOLECULE
HZV
   72    75     1     0     0
SMALL
abcg2


@<TRIPOS>ATOM
      1 C02          3.8390     2.9340    -1.4270 c          1 HZV       0.713600
      2 C04          2.8560     3.1240    -0.2840 ca         1 HZV      -0.080600
      3 C05          2.1360     2.0500     0.2310 ca         1 HZV      -0.205000
      4 C06          1.2140     2.2530     1.2780 ca         1 HZV       0.331800
      5 C07          0.5850     1.0290     1.6800 cc         1 HZV      -0.287800
      6 C08          1.0260    -0.0260     0.9590 cd         1 HZV      -0.174600
      7 C09          0.5870    -1.4600     1.0740 c3         1 HZV       0.287800
      8 C10         -0.3050    -1.8270    -0.0920 ca         1 HZV      -0.040300
      9 C11          0.2200    -2.3820    -1.2520 ca         1 HZV      -0.092000
     10 C12         -0.6350    -2.6720    -2.3070 ca         1 HZV      -0.091000
     11 C13         -1.9900    -2.4140    -2.2130 ca         1 HZV      -0.173000
     12 C14         -2.5230    -1.8540    -1.0490 ca         1 HZV      -0.033000
     13 C16         -4.6850    -1.0880    -0.0650 c          1 HZV       0.604100
     14 C17         -6.1610    -1.1130    -0.4010 c3         1 HZV      -0.161400
     15 C18         -6.9790    -0.0980     0.3830 c3         1 HZV      -0.067400
     16 C19         -8.4530    -0.1990     0.0120 c3         1 HZV       0.164800
     17 C21         -9.0840     2.0580     0.5850 c3         1 HZV       0.149600
     18 C22        -10.7060     0.3200     0.5980 c3         1 HZV       0.149600
     19 C24         -1.6660    -1.5610     0.0120 ca         1 HZV      -0.120000
     20 C27          3.8290    -2.9000     1.9450 c3         1 HZV       0.175800
     21 C29          5.6160    -2.9920     0.3420 c6         1 HZV       0.176300
     22 C30          6.3540    -2.2230    -0.7430 c6         1 HZV      -0.080900
     23 C31          7.0140    -0.9770    -0.1690 c6         1 HZV      -0.067400
     24 C32          5.9840    -0.1410     0.5790 c6         1 HZV      -0.080900
     25 C33          5.2390    -0.9850     1.6010 c6         1 HZV       0.176300
     26 C36          1.6720     4.4690     1.3270 ca         1 HZV       0.303900
     27 C37          2.6040     4.3570     0.2930 ca         1 HZV      -0.146000
     28 N15         -3.9030    -1.6380    -1.0320 ns         1 HZV      -0.146000
     29 N20         -9.3140     0.6480     0.8170 n3         1 HZV      -0.709600
     30 N28          4.6310    -2.1560     1.0000 n3         1 HZV      -0.704600
     31 N35          0.9840     3.4530     1.8180 nb         1 HZV      -0.676000
     32 O01          3.8800     1.7800    -1.8960 o          1 HZV      -0.705500
     33 O03          4.4930     3.9280    -1.7820 o          1 HZV      -0.705500
     34 O23         -4.2540    -0.6400     0.9820 o          1 HZV      -0.573100
     35 O25          1.6850    -2.3250     1.0770 os         1 HZV      -0.447000
     36 S34          2.2270     0.3890    -0.2320 ss         1 HZV       0.252400
     37 H1          -0.1520     0.9640     2.4690 ha         1 HZV       0.191000
     38 H2          -0.0000    -1.5500     2.0010 h1         1 HZV       0.036700
     39 H3           1.2770    -2.5910    -1.3400 ha         1 HZV       0.143000
     40 H4          -0.2400    -3.1060    -3.2170 ha         1 HZV       0.108000
     41 H5          -2.6430    -2.6510    -3.0460 ha         1 HZV       0.096000
     42 H6          -6.3010    -0.9640    -1.4750 hc         1 HZV       0.052200
     43 H7          -6.5220    -2.1270    -0.1910 hc         1 HZV       0.052200
     44 H8          -6.8680    -0.2700     1.4550 hc         1 HZV       0.066200
     45 H9          -6.5980     0.9050     0.1780 hc         1 HZV       0.066200
     46 H10         -8.5760     0.0080    -1.0670 h1         1 HZV       0.023700
     47 H11         -8.7750    -1.2340     0.1630 h1         1 HZV       0.023700
     48 H12         -9.2580     2.3570    -0.4620 h1         1 HZV       0.029200
     49 H13         -9.7530     2.6480     1.2130 h1         1 HZV       0.029200
     50 H14         -8.0650     2.3390     0.8460 h1         1 HZV       0.029200
     51 H15        -10.8850    -0.7320     0.8260 h1         1 HZV       0.029200
     52 H16        -11.3400     0.9160     1.2560 h1         1 HZV       0.029200
     53 H17        -11.0390     0.4980    -0.4380 h1         1 HZV       0.029200
     54 H18         -2.0510    -1.1300     0.9230 ha         1 HZV       0.146000
     55 H19          2.0060    -2.7850     3.0660 h1         1 HZV       0.027700
     56 H20          2.6220    -1.2160     2.5620 h1         1 HZV       0.027700
     57 H21          4.3480    -3.0520     2.9080 h1         1 HZV       0.026200
     58 H22          3.6450    -3.9000     1.5420 h1         1 HZV       0.026200
     59 H23          5.1020    -3.8490    -0.1020 h1         1 HZV       0.016950
     60 H24          6.3530    -3.4060     1.0570 h1         1 HZV       0.016950
     61 H25          7.0950    -2.8760    -1.2110 hc         1 HZV       0.059450
     62 H26          5.6400    -1.9370    -1.5200 hc         1 HZV       0.059450
     63 H27          7.8140    -1.2750     0.5190 hc         1 HZV       0.030200
     64 H28          7.4870    -0.3910    -0.9600 hc         1 HZV       0.030200
     65 H29          6.4680     0.6920     1.0950 hc         1 HZV       0.059450
     66 H30          5.2690     0.2900    -0.1260 hc         1 HZV       0.059450
     67 H31          5.9360    -1.2720     2.4120 h1         1 HZV       0.016950
     68 H32          4.4600    -0.3760     2.0640 h1         1 HZV       0.016950
     69 H33          1.4820     5.4400     1.7720 h4         1 HZV      -0.008900
     70 H34          3.1270     5.2370    -0.0550 ha         1 HZV       0.131000
     71 H35         -4.3870    -1.9580    -1.8560 hn         1 HZV       0.140000
     72 C26          2.4900    -2.2540     2.2360 c3         1 HZV       0.165600
@<TRIPOS>BOND
     1     1     2 1   
     2     1    32 1   
     3     1    33 1   
     4     2     3 ar  
     5     2    27 ar  
     6     3     4 ar  
     7     3    36 1   
     8     4     5 1   
     9     4    31 ar  
    10     5     6 2   
    11     5    37 1   
    12     6     7 1   
    13     6    36 1   
    14     7     8 1   
    15     7    35 1   
    16     7    38 1   
    17     8     9 ar  
    18     8    19 ar  
    19     9    10 ar  
    20     9    39 1   
    21    10    11 ar  
    22    10    40 1   
    23    11    12 ar  
    24    11    41 1   
    25    12    19 ar  
    26    12    28 1   
    27    13    14 1   
    28    13    28 1   
    29    13    34 2   
    30    14    15 1   
    31    14    42 1   
    32    14    43 1   
    33    15    16 1   
    34    15    44 1   
    35    15    45 1   
    36    16    29 1   
    37    16    46 1   
    38    16    47 1   
    39    17    29 1   
    40    17    48 1   
    41    17    49 1   
    42    17    50 1   
    43    18    29 1   
    44    18    51 1   
    45    18    52 1   
    46    18    53 1   
    47    19    54 1   
    48    20    30 1   
    49    20    57 1   
    50    20    58 1   
    51    20    72 1   
    52    21    22 1   
    53    21    30 1   
    54    21    59 1   
    55    21    60 1   
    56    22    23 1   
    57    22    61 1   
    58    22    62 1   
    59    23    24 1   
    60    23    63 1   
    61    23    64 1   
    62    24    25 1   
    63    24    65 1   
    64    24    66 1   
    65    25    30 1   
    66    25    67 1   
    67    25    68 1   
    68    26    27 ar  
    69    26    31 ar  
    70    26    69 1   
    71    27    70 1   
    72    28    71 1   
    73    35    72 1   
    74    55    72 1   
    75    56    72 1   
@<TRIPOS>SUBSTRUCTURE
     1 HZV         1 TEMP              0 ****  ****    0 ROOT
