@<TRIPOS>MOLECULE
HZW
   41    43     1     0     0
SMALL
bcc


@<TRIPOS>ATOM
      1 C1          -3.0410     0.9360     0.2910 ca         1 HZW      -0.068300
      2 C2          -2.3300     2.2610     0.4740 c3         1 HZW       0.150300
      3 O5           0.0180     1.3660     1.7350 o          1 HZW      -0.574100
      4 C7           1.8980     0.4110    -0.2350 c          1 HZW       0.693500
      5 C9           3.7430     1.7630     0.2590 c5         1 HZW       0.101000
      6 C10          2.4930     2.5690     0.5900 c5         1 HZW      -0.082400
      7 C11          4.0780    -0.6950    -0.0650 ca         1 HZW       0.065600
      8 C14          5.4070    -0.5100    -0.4460 ca         1 HZW      -0.149500
      9 C15          6.2690    -1.5940    -0.5230 ca         1 HZW      -0.109000
     10 C16          5.8190    -2.8730    -0.2380 ca         1 HZW      -0.143000
     11 C19         -2.4310    -0.1690    -0.2880 ca         1 HZW      -0.121000
     12 C20         -3.1420    -1.3550    -0.4040 ca         1 HZW       0.056400
     13 C21         -4.4460    -1.4780     0.0430 ca         1 HZW      -0.168000
     14 C22         -5.0230    -0.3570     0.6100 ca         1 HZW       0.148900
     15 N3          -0.9950     2.3120    -0.0500 ns         1 HZW      -0.564900
     16 C4           0.0680     1.8420     0.6150 c          1 HZW       0.661100
     17 C6           1.3860     1.8530    -0.1540 c5         1 HZW      -0.016200
     18 N8           3.2250     0.4170     0.0360 n          1 HZW      -0.372000
     19 O13          1.3010     2.3540    -1.4640 oh         1 HZW      -0.583800
     20 C17          4.4960    -3.0550     0.1380 ca         1 HZW      -0.109000
     21 C18          3.6280    -1.9800     0.2350 ca         1 HZW      -0.149500
     22 C23         -4.3540     0.8390     0.7440 ca         1 HZW      -0.176000
     23 CL1         -2.3770    -2.7250    -1.1260 cl         1 HZW      -0.093400
     24 F25         -6.2850    -0.4430     1.0440 f          1 HZW      -0.138900
     25 H1          -2.9080     3.0460    -0.0150 h1         1 HZW       0.066700
     26 H2          -2.3100     2.5090     1.5360 h1         1 HZW       0.066700
     27 H3           4.2390     2.1410    -0.6380 h1         1 HZW       0.060200
     28 H4           2.3120     2.5460     1.6620 hc         1 HZW       0.082200
     29 H5           5.7860     0.4750    -0.6760 ha         1 HZW       0.144500
     30 H6           7.2990    -1.4290    -0.8080 ha         1 HZW       0.133000
     31 H7           6.4910    -3.7170    -0.3090 ha         1 HZW       0.134000
     32 H8          -1.4190    -0.1170    -0.6650 ha         1 HZW       0.164000
     33 H9          -4.9970    -2.4020    -0.0420 ha         1 HZW       0.165000
     34 H10         -0.8570     2.7060    -0.9620 hn         1 HZW       0.328500
     35 H11          0.8890     1.6950    -2.0330 ho         1 HZW       0.425000
     36 H12          4.1300    -4.0450     0.3720 ha         1 HZW       0.133000
     37 H13          2.6120    -2.1540     0.5530 ha         1 HZW       0.144500
     38 H14         -4.8480     1.6880     1.2000 ha         1 HZW       0.150000
     39 H15          2.5800     3.6100     0.2830 hc         1 HZW       0.082200
     40 H16          4.4620     1.7610     1.0770 h1         1 HZW       0.060200
     41 O12          1.2090    -0.5220    -0.5800 o          1 HZW      -0.596500
@<TRIPOS>BOND
     1     1     2 1   
     2     1    11 ar  
     3     1    22 ar  
     4     2    15 1   
     5     2    25 1   
     6     2    26 1   
     7     3    16 2   
     8     4    17 1   
     9     4    18 1   
    10     4    41 2   
    11     5     6 1   
    12     5    18 1   
    13     5    27 1   
    14     5    40 1   
    15     6    17 1   
    16     6    28 1   
    17     6    39 1   
    18     7     8 ar  
    19     7    18 1   
    20     7    21 ar  
    21     8     9 ar  
    22     8    29 1   
    23     9    10 ar  
    24     9    30 1   
    25    10    20 ar  
    26    10    31 1   
    27    11    12 ar  
    28    11    32 1   
    29    12    13 ar  
    30    12    23 1   
    31    13    14 ar  
    32    13    33 1   
    33    14    22 ar  
    34    14    24 1   
    35    15    16 1   
    36    15    34 1   
    37    16    17 1   
    38    17    19 1   
    39    19    35 1   
    40    20    21 ar  
    41    20    36 1   
    42    21    37 1   
    43    22    38 1   
@<TRIPOS>SUBSTRUCTURE
     1 HZW         1 TEMP              0 ****  ****    0 ROOT
