@<TRIPOS>MOLECULE
HZW
   41    43     1     0     0
SMALL
No Charge or Current Charge


@<TRIPOS>ATOM
      1 C1          -3.1690     1.0570     0.1900 ca         1 HZW      -0.068300
      2 C2          -2.2930     2.2600     0.5080 c3         1 HZW       0.150300
      3 O5           0.0660     1.0520     1.6540 o          1 HZW      -0.574100
      4 C7           1.9920     0.1340    -0.2690 c          1 HZW       0.551000
      5 C9           3.7440     1.7810    -0.1540 c5         1 HZW       0.101000
      6 C10          2.4090     2.5360     0.0830 c5         1 HZW      -0.082400
      7 C11          4.3180    -0.6460     0.3540 ca         1 HZW      -0.027000
      8 C14          5.6110    -0.5830    -0.2120 ca         1 HZW      -0.131500
      9 C15          6.5310    -1.6290    -0.0240 ca         1 HZW      -0.091000
     10 C16          6.1570    -2.7740     0.6940 ca         1 HZW      -0.125000
     11 C19         -3.9380     1.0270    -0.9910 ca         1 HZW      -0.103000
     12 C20         -4.7400    -0.0890    -1.2860 ca         1 HZW       0.148000
     13 C21         -4.7810    -1.1830    -0.4080 ca         1 HZW      -0.150000
     14 C22         -4.0150    -1.1570     0.7660 ca         1 HZW       0.184000
     15 N3          -0.9640     2.1210    -0.0860 ns         1 HZW      -0.497900
     16 C4           0.1120     1.5120     0.5210 c          1 HZW       0.594100
     17 C6           1.3440     1.5280    -0.4500 c5         1 HZW       0.007000
     18 N8           3.3480     0.3690     0.0210 n          1 HZW      -0.212400
     19 O13          1.0060     1.7770    -1.8510 oh         1 HZW      -0.646000
     20 C17          4.8550    -2.8810     1.2060 ca         1 HZW      -0.091000
     21 C18          3.9350    -1.8350     1.0140 ca         1 HZW      -0.131500
     22 C23         -3.2120    -0.0450     1.0670 ca         1 HZW      -0.158000
     23 Cl1         -5.6950    -0.1160    -2.7620 cl         1 HZW      -0.185000
     24 F25         -4.0500    -2.2080     1.6120 f          1 HZW      -0.174000
     25 H1          -2.7610     3.1720     0.1150 h1         1 HZW       0.066700
     26 H2          -2.2000     2.3800     1.5960 h1         1 HZW       0.066700
     27 H3           4.1180     1.9470    -1.1730 h1         1 HZW       0.060200
     28 H4           2.2780     2.7300     1.1550 hc         1 HZW       0.082200
     29 H5           5.9140     0.2790    -0.8020 ha         1 HZW       0.126500
     30 H6           7.5310    -1.5550    -0.4470 ha         1 HZW       0.115000
     31 H7           6.8680    -3.5850     0.8380 ha         1 HZW       0.116000
     32 H8          -3.9140     1.8660    -1.6820 ha         1 HZW       0.146000
     33 H9          -5.4000    -2.0450    -0.6360 ha         1 HZW       0.147000
     34 H10         -0.7990     2.4790    -1.0210 hn         1 HZW       0.328500
     35 H11          0.6440     0.9410    -2.2310 ho         1 HZW       0.464000
     36 H12          4.5540    -3.7780     1.7430 ha         1 HZW       0.115000
     37 H13          2.9310    -1.9440     1.4160 ha         1 HZW       0.126500
     38 H14         -2.6220    -0.0440     1.9800 ha         1 HZW       0.132000
     39 H15          2.3770     3.5080    -0.4230 hc         1 HZW       0.082200
     40 H16          4.5230     2.0860     0.5570 h1         1 HZW       0.060200
     41 O12          1.4610    -0.9630    -0.4050 o          1 HZW      -0.521000
@<TRIPOS>BOND
     1     1     2 1   
     2     1    11 ar  
     3     1    22 ar  
     4     2    15 1   
     5     2    25 1   
     6     2    26 1   
     7     3    16 2   
     8     4    17 1   
     9     4    18 1   
    10     4    41 2   
    11     5     6 1   
    12     5    18 1   
    13     5    27 1   
    14     5    40 1   
    15     6    17 1   
    16     6    28 1   
    17     6    39 1   
    18     7     8 ar  
    19     7    18 1   
    20     7    21 ar  
    21     8     9 ar  
    22     8    29 1   
    23     9    10 ar  
    24     9    30 1   
    25    10    20 ar  
    26    10    31 1   
    27    11    12 ar  
    28    11    32 1   
    29    12    13 ar  
    30    12    23 1   
    31    13    14 ar  
    32    13    33 1   
    33    14    22 ar  
    34    14    24 1   
    35    15    16 1   
    36    15    34 1   
    37    16    17 1   
    38    17    19 1   
    39    19    35 1   
    40    20    21 ar  
    41    20    36 1   
    42    21    37 1   
    43    22    38 1   
@<TRIPOS>SUBSTRUCTURE
     1 HZW         1 TEMP              0 ****  ****    0 ROOT
