@<TRIPOS>MOLECULE
HZX
   35    36     1     0     0
SMALL
No Charge or Current Charge


@<TRIPOS>ATOM
      1 C1         -10.6520   -31.9270   -32.7970 c3         1 HZX      -0.060000
      2 C10         -7.8820   -26.6780   -25.7280 ca         1 HZX      -0.208000
      3 C11         -7.3970   -29.2530   -27.6640 ca         1 HZX      -0.151000
      4 C12         -7.4330   -30.5970   -28.0680 ca         1 HZX      -0.163000
      5 C2          -9.7590   -30.1810   -31.1700 c          1 HZX       0.504600
      6 C3          -8.9020   -29.9060   -29.9060 ca         1 HZX       0.322500
      7 C4          -8.1310   -28.3100   -28.3960 ca         1 HZX       0.536900
      8 C5          -7.8170   -26.1840   -27.0390 ca         1 HZX       0.399000
      9 C6          -7.4360   -24.8550   -27.2560 ca         1 HZX      -0.208000
     10 C7          -7.0900   -24.0230   -26.1770 ca         1 HZX       0.003500
     11 C8          -7.1370   -24.5220   -24.8560 ca         1 HZX      -0.255200
     12 C9          -7.5420   -25.8580   -24.6380 ca         1 HZX       0.003500
     13 N2          -8.1630   -26.9690   -28.1310 nu         1 HZX      -0.931900
     14 O1          -6.4280   -22.4780   -23.9380 o          1 HZX      -0.421500
     15 N           -9.8680   -31.4870   -31.6180 ns         1 HZX      -0.443900
     16 C          -10.4020   -33.4210   -33.1370 c          1 HZX       0.716000
     17 O          -10.4460   -34.2380   -32.2280 o          1 HZX      -0.725500
     18 C13         -8.1960   -30.9410   -29.1990 ca         1 HZX       0.101100
     19 N1          -8.8420   -28.6020   -29.4820 nb         1 HZX      -0.652000
     20 N3          -6.7720   -23.6430   -23.7010 no         1 HZX       0.707200
     21 O2          -6.8270   -24.1210   -22.5600 o          1 HZX      -0.421500
     22 O4         -10.3430   -29.2870   -31.7840 o          1 HZX      -0.626100
     23 H1         -10.3770   -31.3120   -33.6640 h1         1 HZX       0.038700
     24 H2         -11.7210   -31.7920   -32.5910 h1         1 HZX       0.038700
     25 H3          -8.2210   -27.6910   -25.5410 ha         1 HZX       0.131500
     26 H4          -6.7940   -28.9540   -26.8130 ha         1 HZX       0.124000
     27 H5          -6.8730   -31.3470   -27.5140 ha         1 HZX       0.117000
     28 H6          -7.3950   -24.4610   -28.2680 ha         1 HZX       0.131500
     29 H7          -6.7890   -22.9960   -26.3790 ha         1 HZX       0.143000
     30 H8          -7.6020   -26.2690   -23.6310 ha         1 HZX       0.143000
     31 H9          -8.5060   -26.4500   -28.9330 hn         1 HZX       0.517000
     32 H10         -7.6580   -32.7760   -28.9450 ho         1 HZX       0.463000
     33 H11         -9.3800   -32.1950   -31.0730 hn         1 HZX       0.346500
     34 O3          -8.2110   -32.2620   -29.5720 oh         1 HZX      -0.493100
     35 O5         -10.1190   -33.7110   -34.2910 o          1 HZX      -0.725500
@<TRIPOS>BOND
     1     1    15 1   
     2     1    16 1   
     3     1    23 1   
     4     1    24 1   
     5     2     8 ar  
     6     2    12 ar  
     7     2    25 1   
     8     3     4 ar  
     9     3     7 ar  
    10     3    26 1   
    11     4    18 ar  
    12     4    27 1   
    13     5     6 1   
    14     5    15 1   
    15     5    22 2   
    16     6    18 ar  
    17     6    19 ar  
    18     7    13 1   
    19     7    19 ar  
    20     8     9 ar  
    21     8    13 1   
    22     9    10 ar  
    23     9    28 1   
    24    10    11 ar  
    25    10    29 1   
    26    11    12 ar  
    27    11    20 1   
    28    12    30 1   
    29    13    31 1   
    30    14    20 1   
    31    15    33 1   
    32    16    17 1   
    33    16    35 1   
    34    18    34 1   
    35    20    21 1   
    36    32    34 1   
@<TRIPOS>SUBSTRUCTURE
     1 HZX         1 TEMP              0 ****  ****    0 ROOT
