@<TRIPOS>MOLECULE
HZX
   35    36     1     0     0
SMALL
bcc


@<TRIPOS>ATOM
      1 C1         -10.4270   -31.7100   -32.7450 c3         1 HZX      -0.060000
      2 C10         -7.8470   -26.7120   -25.8930 ca         1 HZX      -0.226000
      3 C11         -7.6060   -29.3680   -27.5110 ca         1 HZX      -0.234300
      4 C12         -7.8860   -30.7090   -27.6700 ca         1 HZX      -0.181000
      5 C2         -10.2240   -30.4590   -30.6420 c          1 HZX       0.571600
      6 C3          -9.2840   -30.1360   -29.5080 ca         1 HZX       0.387800
      7 C4          -8.2370   -28.4530   -28.3540 ca         1 HZX       0.602200
      8 C5          -7.6950   -26.2990   -27.2270 ca         1 HZX       0.260600
      9 C6          -7.2310   -24.9930   -27.4710 ca         1 HZX      -0.226000
     10 C7          -6.9080   -24.1490   -26.4360 ca         1 HZX      -0.014500
     11 C8          -7.0390   -24.5900   -25.1220 ca         1 HZX      -0.255200
     12 C9          -7.5170   -25.8680   -24.8560 ca         1 HZX      -0.014500
     13 N2          -8.0100   -27.0810   -28.3000 nu         1 HZX      -0.738300
     14 O1          -6.3130   -22.5940   -24.3000 o          1 HZX      -0.231500
     15 N           -9.7160   -31.2550   -31.5780 ns         1 HZX      -0.510900
     16 C           -9.5320   -32.6540   -33.5820 c          1 HZX       0.926600
     17 O           -8.3620   -32.8150   -33.1830 o          1 HZX      -0.830800
     18 C13         -8.7480   -31.1220   -28.6830 ca         1 HZX       0.035800
     19 N1          -9.0490   -28.8450   -29.3200 nb         1 HZX      -0.652000
     20 N3          -6.6870   -23.7160   -24.0360 no         1 HZX       0.327200
     21 O2          -6.7790   -24.1400   -22.9030 o          1 HZX      -0.231500
     22 O4         -11.3500   -29.9800   -30.6730 o          1 HZX      -0.626100
     23 H1         -10.7360   -30.8660   -33.3690 h1         1 HZX       0.038700
     24 H2         -11.3420   -32.2380   -32.4610 h1         1 HZX       0.038700
     25 H3          -8.2520   -27.6840   -25.6540 ha         1 HZX       0.149500
     26 H4          -6.8920   -29.0550   -26.7630 ha         1 HZX       0.142000
     27 H5          -7.4170   -31.4370   -27.0190 ha         1 HZX       0.135000
     28 H6          -7.1160   -24.6510   -28.4920 ha         1 HZX       0.149500
     29 H7          -6.5450   -23.1550   -26.6590 ha         1 HZX       0.161000
     30 H8          -7.6510   -26.2100   -23.8400 ha         1 HZX       0.161000
     31 H9          -8.1420   -26.6060   -29.1810 hn         1 HZX       0.461800
     32 H10         -8.6410   -32.9830   -28.2640 ho         1 HZX       0.424000
     33 H11         -8.7660   -31.5990   -31.5190 hn         1 HZX       0.346500
     34 O3          -9.0850   -32.4050   -28.8960 oh         1 HZX      -0.454100
     35 O5         -10.0790   -33.1560   -34.5760 o          1 HZX      -0.830800
@<TRIPOS>BOND
     1     1    15 1   
     2     1    16 1   
     3     1    23 1   
     4     1    24 1   
     5     2     8 ar  
     6     2    12 ar  
     7     2    25 1   
     8     3     4 ar  
     9     3     7 ar  
    10     3    26 1   
    11     4    18 ar  
    12     4    27 1   
    13     5     6 1   
    14     5    15 1   
    15     5    22 2   
    16     6    18 ar  
    17     6    19 ar  
    18     7    13 1   
    19     7    19 ar  
    20     8     9 ar  
    21     8    13 1   
    22     9    10 ar  
    23     9    28 1   
    24    10    11 ar  
    25    10    29 1   
    26    11    12 ar  
    27    11    20 1   
    28    12    30 1   
    29    13    31 1   
    30    14    20 1   
    31    15    33 1   
    32    16    17 1   
    33    16    35 1   
    34    18    34 1   
    35    20    21 1   
    36    32    34 1   
@<TRIPOS>SUBSTRUCTURE
     1 HZX         1 TEMP              0 ****  ****    0 ROOT
