@<TRIPOS>MOLECULE
HZY
   49    51     1     0     0
SMALL
bcc


@<TRIPOS>ATOM
      1 CAZ         -5.6800     3.3960    -0.0910 c3         1 HZY       0.117700
      2 OAW         -5.7860     2.0800     0.4180 os         1 HZY      -0.283400
      3 CAN         -4.8930     1.1630     0.0180 ca         1 HZY       0.168100
      4 CAM         -3.8340     1.4210    -0.8540 ca         1 HZY      -0.231000
      5 CAO         -5.0710    -0.1220     0.5320 ca         1 HZY       0.066100
      6 OAX         -6.1160    -0.3850     1.3550 os         1 HZY      -0.294900
      7 CBA         -5.8380    -0.1880     2.7370 c3         1 HZY       0.122700
      8 CAP         -4.1840    -1.1470     0.1800 ca         1 HZY       0.168100
      9 OAY         -4.4360    -2.3430     0.7330 os         1 HZY      -0.283400
     10 CBB         -3.5900    -3.4290     0.4080 c3         1 HZY       0.117700
     11 CAQ         -3.1350    -0.8890    -0.6970 ca         1 HZY      -0.231000
     12 CAL         -2.9690     0.3960    -1.2010 ca         1 HZY      -0.093300
     13 CAK         -1.8240     0.6840    -2.1280 c3         1 HZY       0.060600
     14 NAI         -0.5280     0.5370    -1.4310 na         1 HZY       0.041900
     15 CAJ          0.3710    -0.3230    -1.8650 ca         1 HZY       0.032700
     16 CAH         -0.2990     1.3130    -0.3310 ca         1 HZY      -0.078300
     17 CAG          0.8660     1.2180     0.3520 ca         1 HZY      -0.098000
     18 CAE          1.8630     0.3080    -0.0670 ca         1 HZY       0.035000
     19 CAD          3.0890     0.1600     0.6020 ca         1 HZY      -0.145000
     20 CAF          1.5980    -0.4790    -1.2140 ca         1 HZY      -0.106000
     21 CAA          2.5570    -1.4070    -1.6770 ca         1 HZY      -0.069000
     22 CAB          3.7440    -1.5370    -1.0170 ca         1 HZY      -0.100000
     23 CAC          3.9940    -0.7500     0.1260 ca         1 HZY       0.213100
     24 OAR          5.1670    -0.9420     0.8110 os         1 HZY      -0.438800
     25 SAS          6.5040    -0.1320     0.3220 s6         1 HZY       1.548400
     26 OAT          7.4890    -0.6270     1.2470 o          1 HZY      -0.585300
     27 OAU          6.6340    -0.3100    -1.1030 o          1 HZY      -0.585300
     28 NAV          6.1040     1.4070     0.6010 n8         1 HZY      -0.988700
     29 H1          -5.7830     3.4210    -1.1790 h1         1 HZY       0.049533
     30 H2          -6.4950     3.9620     0.3520 h1         1 HZY       0.049533
     31 H3          -4.7330     3.8670     0.1850 h1         1 HZY       0.049533
     32 H4          -3.6750     2.4110    -1.2600 ha         1 HZY       0.138000
     33 H5          -5.0430    -0.8500     3.0880 h1         1 HZY       0.042700
     34 H6          -5.5530     0.8450     2.9490 h1         1 HZY       0.042700
     35 H7          -6.7510    -0.4180     3.2830 h1         1 HZY       0.042700
     36 H8          -3.6180    -3.6620    -0.6590 h1         1 HZY       0.049533
     37 H9          -2.5540    -3.2420     0.7040 h1         1 HZY       0.049533
     38 H10         -3.9630    -4.2850     0.9640 h1         1 HZY       0.049533
     39 H11         -2.4490    -1.6730    -0.9900 ha         1 HZY       0.138000
     40 H12         -1.8110     0.0020    -2.9760 h1         1 HZY       0.093700
     41 H13         -1.8710     1.7010    -2.5160 h1         1 HZY       0.093700
     42 H14          0.1240    -0.8980    -2.7470 h4         1 HZY       0.195000
     43 H15         -1.0910     1.9890    -0.0490 h4         1 HZY       0.203000
     44 H16          1.0200     1.8460     1.2180 ha         1 HZY       0.186000
     45 H17          3.3030     0.7460     1.4850 ha         1 HZY       0.178000
     46 H18          2.3470    -2.0060    -2.5520 ha         1 HZY       0.165000
     47 H19          4.4840    -2.2510    -1.3510 ha         1 HZY       0.189000
     48 H20          6.3390     1.7740     1.5150 hn         1 HZY       0.458300
     49 H21          6.2660     2.0450    -0.1680 hn         1 HZY       0.458300
@<TRIPOS>BOND
     1     1     2 1   
     2     1    29 1   
     3     1    30 1   
     4     1    31 1   
     5     2     3 1   
     6     3     4 ar  
     7     3     5 ar  
     8     4    12 ar  
     9     4    32 1   
    10     5     6 1   
    11     5     8 ar  
    12     6     7 1   
    13     7    33 1   
    14     7    34 1   
    15     7    35 1   
    16     8     9 1   
    17     8    11 ar  
    18     9    10 1   
    19    10    36 1   
    20    10    37 1   
    21    10    38 1   
    22    11    12 ar  
    23    11    39 1   
    24    12    13 1   
    25    13    14 1   
    26    13    40 1   
    27    13    41 1   
    28    14    15 1   
    29    14    16 2   
    30    15    20 ar  
    31    15    42 1   
    32    16    17 ar  
    33    16    43 1   
    34    17    18 ar  
    35    17    44 1   
    36    18    19 ar  
    37    18    20 ar  
    38    19    23 ar  
    39    19    45 1   
    40    20    21 ar  
    41    21    22 ar  
    42    21    46 1   
    43    22    23 ar  
    44    22    47 1   
    45    23    24 1   
    46    24    25 1   
    47    25    26 2   
    48    25    27 2   
    49    25    28 1   
    50    28    48 1   
    51    28    49 1   
@<TRIPOS>SUBSTRUCTURE
     1 HZY         1 TEMP              0 ****  ****    0 ROOT
