@<TRIPOS>MOLECULE
HZY
   49    51     1     0     0
SMALL
No Charge or Current Charge


@<TRIPOS>ATOM
      1 CAZ         -6.5340     3.1960    -0.8950 c3         1 HZY       0.140900
      2 OAW         -6.3690     2.0210    -0.0800 os         1 HZY      -0.306600
      3 CAN         -5.2450     1.2120    -0.1510 ca         1 HZY       0.168100
      4 CAM         -4.1870     1.5020    -1.0380 ca         1 HZY      -0.213000
      5 CAO         -5.1830     0.0790     0.6970 ca         1 HZY       0.066100
      6 OAX         -6.2770    -0.1220     1.5410 os         1 HZY      -0.318100
      7 CBA         -6.4130    -1.2070     2.4760 c3         1 HZY       0.145900
      8 CAP         -4.0330    -0.7680     0.6380 ca         1 HZY       0.168100
      9 OAY         -3.9370    -1.8860     1.4510 os         1 HZY      -0.306600
     10 CBB         -2.8010    -2.7690     1.4500 c3         1 HZY       0.140900
     11 CAQ         -2.9880    -0.4560    -0.2630 ca         1 HZY      -0.213000
     12 CAL         -3.0550     0.6750    -1.0950 ca         1 HZY      -0.093300
     13 CAK         -1.9160     1.0030    -2.0610 c3         1 HZY       0.089900
     14 NAI         -0.5740     0.9030    -1.4560 na         1 HZY       0.063300
     15 CAJ          0.3140    -0.1060    -1.8440 ca         1 HZY       0.000000
     16 CAH         -0.1990     1.7820    -0.4360 ca         1 HZY      -0.060300
     17 CAG          1.0490     1.6610     0.2030 ca         1 HZY      -0.080000
     18 CAE          1.9400     0.6440    -0.1870 ca         1 HZY       0.035000
     19 CAD          3.1910     0.5080     0.4420 ca         1 HZY      -0.127000
     20 CAF          1.5690    -0.2470    -1.2190 ca         1 HZY      -0.106000
     21 CAA          2.4510    -1.2720    -1.6120 ca         1 HZY      -0.051000
     22 CAB          3.7010    -1.4040    -0.9800 ca         1 HZY      -0.082000
     23 CAC          4.0730    -0.5060     0.0370 ca         1 HZY       0.213100
     24 OAR          5.2790    -0.6360     0.6700 os         1 HZY      -0.438800
     25 SAS          6.6150    -0.1900    -0.1510 s6         1 HZY       1.406800
     26 OAT          7.2140    -1.3610    -0.7820 o          1 HZY      -0.514500
     27 OAU          6.3900     1.0630    -0.8700 o          1 HZY      -0.514500
     28 NAV          7.5420     0.1340     1.1370 n8         1 HZY      -1.099100
     29 H1          -6.5240     2.9360    -1.9610 h1         1 HZY       0.049533
     30 H2          -7.4940     3.6790    -0.6730 h1         1 HZY       0.049533
     31 H3          -5.7350     3.9220    -0.6990 h1         1 HZY       0.049533
     32 H4          -4.2290     2.3690    -1.6910 ha         1 HZY       0.120000
     33 H5          -6.4020    -2.1750     1.9600 h1         1 HZY       0.042700
     34 H6          -5.6080    -1.1850     3.2220 h1         1 HZY       0.042700
     35 H7          -7.3670    -1.1250     3.0120 h1         1 HZY       0.042700
     36 H8          -2.6620    -3.2260     0.4620 h1         1 HZY       0.049533
     37 H9          -1.8860    -2.2290     1.7230 h1         1 HZY       0.049533
     38 H10         -2.9470    -3.5760     2.1780 h1         1 HZY       0.049533
     39 H11         -2.1080    -1.0890    -0.3300 ha         1 HZY       0.120000
     40 H12         -1.9770     0.3280    -2.9230 h1         1 HZY       0.093700
     41 H13         -2.0370     2.0240    -2.4460 h1         1 HZY       0.093700
     42 H14         -0.0020    -0.7810    -2.6410 h4         1 HZY       0.177000
     43 H15         -0.9110     2.5570    -0.1470 h4         1 HZY       0.185000
     44 H16          1.3180     2.3550     0.9980 ha         1 HZY       0.168000
     45 H17          3.4840     1.1840     1.2400 ha         1 HZY       0.160000
     46 H18          2.1710    -1.9690    -2.4000 ha         1 HZY       0.147000
     47 H19          4.3750    -2.2050    -1.2750 ha         1 HZY       0.171000
     48 H20          6.9510    -0.2880     1.8490 hn         1 HZY       0.513500
     49 H21          8.2630    -0.5660     0.9820 hn         1 HZY       0.513500
@<TRIPOS>BOND
     1     1     2 1   
     2     1    29 1   
     3     1    30 1   
     4     1    31 1   
     5     2     3 1   
     6     3     4 ar  
     7     3     5 ar  
     8     4    12 ar  
     9     4    32 1   
    10     5     6 1   
    11     5     8 ar  
    12     6     7 1   
    13     7    33 1   
    14     7    34 1   
    15     7    35 1   
    16     8     9 1   
    17     8    11 ar  
    18     9    10 1   
    19    10    36 1   
    20    10    37 1   
    21    10    38 1   
    22    11    12 ar  
    23    11    39 1   
    24    12    13 1   
    25    13    14 1   
    26    13    40 1   
    27    13    41 1   
    28    14    15 1   
    29    14    16 2   
    30    15    20 ar  
    31    15    42 1   
    32    16    17 ar  
    33    16    43 1   
    34    17    18 ar  
    35    17    44 1   
    36    18    19 ar  
    37    18    20 ar  
    38    19    23 ar  
    39    19    45 1   
    40    20    21 ar  
    41    21    22 ar  
    42    21    46 1   
    43    22    23 ar  
    44    22    47 1   
    45    23    24 1   
    46    24    25 1   
    47    25    26 2   
    48    25    27 2   
    49    25    28 1   
    50    28    48 1   
    51    28    49 1   
@<TRIPOS>SUBSTRUCTURE
     1 HZY         1 TEMP              0 ****  ****    0 ROOT
