@<TRIPOS>MOLECULE
O00
   39    41     1     0     0
SMALL
No Charge or Current Charge


@<TRIPOS>ATOM
      1 C10         26.5570    11.9340   -32.3790 cc         1 O00       0.520200
      2 N12         27.5320    12.7040   -32.9810 n          1 O00      -0.358300
      3 C15         26.9010    10.7150   -31.6580 ce         1 O00      -0.294600
      4 C17         26.3970     8.3340   -30.8220 ca         1 O00      -0.078800
      5 C20         26.8840     5.8730   -29.5170 ca         1 O00      -0.093000
      6 C21         25.6580     6.0970   -30.1630 ca         1 O00      -0.114000
      7 C22         25.4160     7.3200   -30.8120 ca         1 O00      -0.085500
      8 C01         22.1340    15.0520   -34.0020 ca         1 O00      -0.095000
      9 C02         20.7390    14.8920   -33.9480 ca         1 O00       0.114500
     10 C03         20.1690    13.6060   -33.8400 ca         1 O00       0.085100
     11 C04         21.0240    12.4850   -33.7910 ca         1 O00       0.114500
     12 C05         22.4180    12.6450   -33.8450 ca         1 O00      -0.095000
     13 C06         22.9880    13.9320   -33.9410 ca         1 O00      -0.061800
     14 C07         24.4670    14.1400   -34.0110 ce         1 O00      -0.044200
     15 C08         25.5090    13.4040   -33.4800 cd         1 O00      -0.006600
     16 C09         26.9370    13.7060   -33.7040 c          1 O00       0.536200
     17 C14         28.9940    12.5130   -32.9040 c3         1 O00       0.099300
     18 C16         26.1120     9.6090   -31.5140 cf         1 O00      -0.075200
     19 C18         27.6270     8.0990   -30.1690 ca         1 O00      -0.085500
     20 C19         27.8670     6.8750   -29.5200 ca         1 O00      -0.114000
     21 F24         19.9470    15.9880   -34.0020 f          1 O00      -0.171000
     22 N11         25.3060    12.2870   -32.6720 nd         1 O00      -0.615300
     23 O13         27.4700    14.5940   -34.3570 o          1 O00      -0.505000
     24 O25         18.8040    13.4450   -33.7880 oh         1 O00      -0.504100
     25 H2          27.9030    10.7090   -31.2400 ha         1 O00       0.187000
     26 H3          27.0710     4.9260   -29.0140 ha         1 O00       0.116000
     27 H4          24.8940     5.3220   -30.1620 ha         1 O00       0.116500
     28 H5          24.4610     7.4780   -31.3080 ha         1 O00       0.114500
     29 H6          22.5500    16.0540   -34.0840 ha         1 O00       0.153000
     30 H7          23.0480    11.7610   -33.8240 ha         1 O00       0.153000
     31 H8          24.7750    15.0100   -34.5940 ha         1 O00       0.196000
     32 H10         29.2500    11.4900   -33.2080 h1         1 O00       0.051700
     33 H11         29.5110    13.2170   -33.5680 h1         1 O00       0.051700
     34 H12         29.3340    12.6800   -31.8740 h1         1 O00       0.051700
     35 H13         25.1190     9.6520   -31.9690 ha         1 O00       0.196000
     36 H14         28.4050     8.8570   -30.1560 ha         1 O00       0.114500
     37 H15         28.8180     6.7040   -29.0200 ha         1 O00       0.116500
     38 H16         18.6060    12.4850   -33.7160 ho         1 O00       0.483000
     39 F23         20.5030    11.2390   -33.6990 f          1 O00      -0.171000
@<TRIPOS>BOND
     1     1     2 1   
     2     1     3 1   
     3     1    22 2   
     4     2    16 1   
     5     2    17 1   
     6     3    18 2   
     7     3    25 1   
     8     4     7 ar  
     9     4    18 1   
    10     4    19 ar  
    11     5     6 ar  
    12     5    20 ar  
    13     5    26 1   
    14     6     7 ar  
    15     6    27 1   
    16     7    28 1   
    17     8     9 ar  
    18     8    13 ar  
    19     8    29 1   
    20     9    10 ar  
    21     9    21 1   
    22    10    11 ar  
    23    10    24 1   
    24    11    12 ar  
    25    11    39 1   
    26    12    13 ar  
    27    12    30 1   
    28    13    14 1   
    29    14    15 2   
    30    14    31 1   
    31    15    16 1   
    32    15    22 1   
    33    16    23 2   
    34    17    32 1   
    35    17    33 1   
    36    17    34 1   
    37    18    35 1   
    38    19    20 ar  
    39    19    36 1   
    40    20    37 1   
    41    24    38 1   
@<TRIPOS>SUBSTRUCTURE
     1 O00         1 TEMP              0 ****  ****    0 ROOT
