@<TRIPOS>MOLECULE
O00
   39    41     1     0     0
SMALL
abcg2


@<TRIPOS>ATOM
      1 C10         26.5650    11.7920   -32.4750 cc         1 O00       0.520200
      2 N12         27.5130    12.6890   -32.9260 n          1 O00      -0.358300
      3 C15         26.9540    10.5950   -31.7680 ce         1 O00      -0.294600
      4 C17         26.4070     8.3170   -30.9100 ca         1 O00      -0.078800
      5 C20         26.9060     5.8500   -29.6890 ca         1 O00      -0.093000
      6 C21         25.7380     6.0430   -30.4120 ca         1 O00      -0.114000
      7 C22         25.4890     7.2680   -31.0120 ca         1 O00      -0.085500
      8 C01         22.1900    14.8370   -34.5050 ca         1 O00      -0.095000
      9 C02         20.8230    14.7130   -34.4610 ca         1 O00       0.114500
     10 C03         20.1910    13.6400   -33.8400 ca         1 O00       0.085100
     11 C04         21.0290    12.6930   -33.2530 ca         1 O00       0.114500
     12 C05         22.3990    12.7800   -33.2720 ca         1 O00      -0.095000
     13 C06         23.0080    13.8700   -33.9080 ca         1 O00      -0.061800
     14 C07         24.4380    14.0760   -33.9680 ce         1 O00      -0.044200
     15 C08         25.4330    13.3210   -33.4620 cd         1 O00      -0.006600
     16 C09         26.8610    13.7120   -33.5760 c          1 O00       0.536200
     17 C14         28.9400    12.6270   -32.7140 c3         1 O00       0.099300
     18 C16         26.1040     9.5730   -31.5800 cf         1 O00      -0.075200
     19 C18         27.5790     8.1100   -30.1710 ca         1 O00      -0.085500
     20 C19         27.8230     6.8890   -29.5670 ca         1 O00      -0.114000
     21 F24         20.0530    15.6500   -35.0250 f          1 O00      -0.171000
     22 N11         25.3460    12.1320   -32.7670 nd         1 O00      -0.615300
     23 O13         27.3750    14.6750   -34.1030 o          1 O00      -0.505000
     24 O25         18.8570    13.5830   -33.8390 oh         1 O00      -0.504100
     25 H2          27.9750    10.5420   -31.4130 ha         1 O00       0.187000
     26 H3          27.1020     4.8960   -29.2160 ha         1 O00       0.116000
     27 H4          25.0180     5.2400   -30.5090 ha         1 O00       0.116500
     28 H5          24.5740     7.4180   -31.5730 ha         1 O00       0.114500
     29 H6          22.6260    15.6950   -35.0020 ha         1 O00       0.153000
     30 H7          22.9920    12.0120   -32.7940 ha         1 O00       0.153000
     31 H8          24.7540    14.9790   -34.4800 ha         1 O00       0.196000
     32 H10         29.3300    11.6510   -32.9990 h1         1 O00       0.051700
     33 H11         29.4140    13.3790   -33.3380 h1         1 O00       0.051700
     34 H12         29.1950    12.8230   -31.6740 h1         1 O00       0.051700
     35 H13         25.0990     9.6630   -31.9820 ha         1 O00       0.196000
     36 H14         28.3020     8.9070   -30.0510 ha         1 O00       0.114500
     37 H15         28.7310     6.7470   -28.9960 ha         1 O00       0.116500
     38 H16         18.5380    12.7930   -33.3830 ho         1 O00       0.483000
     39 F23         20.4330    11.6540   -32.6420 f          1 O00      -0.171000
@<TRIPOS>BOND
     1     1     2 1   
     2     1     3 1   
     3     1    22 2   
     4     2    16 1   
     5     2    17 1   
     6     3    18 2   
     7     3    25 1   
     8     4     7 ar  
     9     4    18 1   
    10     4    19 ar  
    11     5     6 ar  
    12     5    20 ar  
    13     5    26 1   
    14     6     7 ar  
    15     6    27 1   
    16     7    28 1   
    17     8     9 ar  
    18     8    13 ar  
    19     8    29 1   
    20     9    10 ar  
    21     9    21 1   
    22    10    11 ar  
    23    10    24 1   
    24    11    12 ar  
    25    11    39 1   
    26    12    13 ar  
    27    12    30 1   
    28    13    14 1   
    29    14    15 2   
    30    14    31 1   
    31    15    16 1   
    32    15    22 1   
    33    16    23 2   
    34    17    32 1   
    35    17    33 1   
    36    17    34 1   
    37    18    35 1   
    38    19    20 ar  
    39    19    36 1   
    40    20    37 1   
    41    24    38 1   
@<TRIPOS>SUBSTRUCTURE
     1 O00         1 TEMP              0 ****  ****    0 ROOT
