@<TRIPOS>MOLECULE
O01
   26    27     1     0     0
SMALL
bcc


@<TRIPOS>ATOM
      1 N3          -3.0380     0.7490     0.0070 nc         1 O01      -0.652000
      2 C4          -3.0620    -0.5170     0.2710 cd         1 O01       0.442700
      3 C6          -4.2960    -1.3330     0.4230 c3         1 O01      -0.130400
      4 C7          -1.5820     2.6920    -0.3980 c3         1 O01      -0.118400
      5 C8           0.6710     0.4510     0.0840 cd         1 O01       0.392800
      6 C1          -0.7750     0.3180     0.1060 cd         1 O01      -0.177900
      7 C11          2.8400     0.0610    -0.0700 cc         1 O01      -0.099600
      8 C12          1.6200    -0.5690    -0.1480 cd         1 O01      -0.275300
      9 C2          -1.7630     1.2430    -0.0910 cc         1 O01       0.385600
     10 N10          2.5680     1.3510     0.1930 na         1 O01      -0.004600
     11 N14          4.2630    -1.8890    -0.0140 n8         1 O01      -0.879800
     12 N9           1.2700     1.6140     0.2960 nc         1 O01      -0.505800
     13 S5          -1.4940    -1.2220     0.4270 ss         1 O01      -0.195300
     14 H1          -4.3660    -2.0920    -0.3570 hc         1 O01       0.057367
     15 H2          -4.3190    -1.8470     1.3840 hc         1 O01       0.057367
     16 H3          -5.1700    -0.6890     0.3540 hc         1 O01       0.057367
     17 H4          -1.7010     3.3000     0.5010 hc         1 O01       0.053033
     18 H5          -0.5940     2.8990    -0.7990 hc         1 O01       0.053033
     19 H6          -2.3330     3.0220    -1.1150 hc         1 O01       0.053033
     20 H7           4.5460    -0.2730    -1.2770 h1         1 O01       0.037700
     21 H8           4.9120     0.1210     0.3880 h1         1 O01       0.037700
     22 H9           1.4430    -1.6110    -0.3560 ha         1 O01       0.178000
     23 H10          3.2330     2.0960     0.3290 hn         1 O01       0.317700
     24 H11          5.1760    -2.2450    -0.2630 hn         1 O01       0.346800
     25 H12          4.1480    -2.0760     0.9740 hn         1 O01       0.346800
     26 C13          4.2280    -0.4590    -0.2470 c3         1 O01       0.221100
@<TRIPOS>BOND
     1     1     2 2   
     2     1     9 1   
     3     2     3 1   
     4     2    13 1   
     5     3    14 1   
     6     3    15 1   
     7     3    16 1   
     8     4     9 1   
     9     4    17 1   
    10     4    18 1   
    11     4    19 1   
    12     5     6 1   
    13     5     8 1   
    14     5    12 2   
    15     6     9 2   
    16     6    13 1   
    17     7     8 2   
    18     7    10 1   
    19     7    26 1   
    20     8    22 1   
    21    10    12 1   
    22    10    23 1   
    23    11    24 1   
    24    11    25 1   
    25    11    26 1   
    26    20    26 1   
    27    21    26 1   
@<TRIPOS>SUBSTRUCTURE
     1 O01         1 TEMP              0 ****  ****    0 ROOT
