@<TRIPOS>MOLECULE
O01
   26    27     1     0     0
SMALL
No Charge or Current Charge


@<TRIPOS>ATOM
      1 N3          -3.0400     0.7530     0.1560 nc         1 O01      -0.652000
      2 C4          -3.0690    -0.5650     0.0200 cd         1 O01       0.442700
      3 C6          -4.3670    -1.3180     0.0220 c3         1 O01      -0.130400
      4 C7          -1.5480     2.6960     0.2670 c3         1 O01      -0.118400
      5 C8           0.6320     0.4430    -0.1040 cd         1 O01       0.327500
      6 C1          -0.7910     0.2170    -0.0390 cd         1 O01      -0.257500
      7 C11          2.8110    -0.0620    -0.2930 cc         1 O01      -0.150300
      8 C12          1.5590    -0.6080    -0.2730 cd         1 O01      -0.192000
      9 C2          -1.7430     1.2080     0.1230 cc         1 O01       0.320300
     10 N10          2.5700     1.3020    -0.1360 na         1 O01      -0.004200
     11 N14          4.4840    -1.5250     0.7260 n8         1 O01      -0.990200
     12 N9           1.2230     1.6200    -0.0190 nc         1 O01      -0.505800
     13 S5          -1.5220    -1.3750    -0.1610 ss         1 O01      -0.050400
     14 H1          -4.2000    -2.3940    -0.1010 hc         1 O01       0.057367
     15 H2          -4.9050    -1.1660     0.9650 hc         1 O01       0.057367
     16 H3          -5.0140    -0.9830    -0.7970 hc         1 O01       0.057367
     17 H4          -0.9400     2.9260     1.1490 hc         1 O01       0.053033
     18 H5          -1.0500     3.1100    -0.6170 hc         1 O01       0.053033
     19 H6          -2.5040     3.2200     0.3820 hc         1 O01       0.053033
     20 H7           4.1620    -1.3460    -1.3460 h1         1 O01       0.037700
     21 H8           4.9330     0.0660    -0.5770 h1         1 O01       0.037700
     22 H9           1.3270    -1.6620    -0.3680 ha         1 O01       0.160000
     23 H10          3.2820     2.0310    -0.1050 hn         1 O01       0.368000
     24 H11          5.4460    -1.8740     0.6320 hn         1 O01       0.402000
     25 H12          4.5270    -0.9110     1.5470 hn         1 O01       0.402000
     26 C13          4.1610    -0.7060    -0.4530 c3         1 O01       0.221100
@<TRIPOS>BOND
     1     1     2 2   
     2     1     9 1   
     3     2     3 1   
     4     2    13 1   
     5     3    14 1   
     6     3    15 1   
     7     3    16 1   
     8     4     9 1   
     9     4    17 1   
    10     4    18 1   
    11     4    19 1   
    12     5     6 1   
    13     5     8 1   
    14     5    12 2   
    15     6     9 2   
    16     6    13 1   
    17     7     8 2   
    18     7    10 1   
    19     7    26 1   
    20     8    22 1   
    21    10    12 1   
    22    10    23 1   
    23    11    24 1   
    24    11    25 1   
    25    11    26 1   
    26    20    26 1   
    27    21    26 1   
@<TRIPOS>SUBSTRUCTURE
     1 O01         1 TEMP              0 ****  ****    0 ROOT
