@<TRIPOS>MOLECULE
O02
   45    47     1     0     0
SMALL
No Charge or Current Charge


@<TRIPOS>ATOM
      1 PB           2.7470     1.4520    -1.7730 p5         1 O02       1.337500
      2 O1B          4.1730     1.5710    -2.1820 o          1 O02      -0.952167
      3 O2B          2.0690     2.7430    -2.0710 o          1 O02      -0.952167
      4 O3B          2.0450     0.3490    -2.4770 o          1 O02      -0.952167
      5 PA           3.0610    -0.3870     0.3880 p5         1 O02       1.412400
      6 O1A          3.3870    -0.3940     1.8470 o          1 O02      -0.851000
      7 O2A          4.1550    -0.9930    -0.4270 o          1 O02      -0.851000
      8 C3A          2.6570     1.3060    -0.0090 c3         1 O02      -0.745400
      9 O5           1.6290    -1.0890     0.1510 os         1 O02      -0.586400
     10 C5           1.5130    -2.4680     0.5300 c3         1 O02       0.235600
     11 C4           0.0640    -3.0080     0.3070 c5         1 O02       0.141300
     12 O4          -0.9270    -2.0360     0.7480 os         1 O02      -0.394000
     13 C3          -0.2920    -3.3250    -1.1860 c5         1 O02       0.093300
     14 O3          -1.3290    -4.3050    -1.3220 oh         1 O02      -0.721000
     15 C2          -0.8040    -1.9390    -1.6550 c5         1 O02       0.058300
     16 O2          -1.5670    -2.0350    -2.8770 oh         1 O02      -0.711000
     17 C1          -1.6470    -1.5310    -0.3980 c5         1 O02       0.334300
     18 N9          -1.9390    -0.1150    -0.1970 na         1 O02      -0.304300
     19 C8          -1.1220     0.9560    -0.5820 cc         1 O02       0.502700
     20 N7          -1.7050     2.1390    -0.2920 nd         1 O02      -0.502100
     21 C7          -2.9190     1.7690     0.2910 ca         1 O02      -0.089600
     22 C6          -3.9550     2.5780     0.8000 ca         1 O02       0.438900
     23 N6          -3.9020     3.9380     0.7860 nv         1 O02      -1.071900
     24 N1          -5.0580     2.0390     1.3360 nb         1 O02      -0.335000
     25 C10         -5.1090     0.6860     1.3510 ca         1 O02       0.397900
     26 N3          -4.1680    -0.1650     0.8850 nb         1 O02      -0.285000
     27 C9          -3.0710     0.4090     0.3570 ca         1 O02       0.128500
     28 N4          -6.2450     0.0720     1.9010 nu         1 O02      -0.749900
     29 N5          -7.3980     0.7810     2.4690 n8         1 O02      -0.679000
     30 H3A2         3.3790     1.9790     0.4590 hc         1 O02       0.025200
     31 H3A1         1.6570     1.5460     0.3590 hc         1 O02       0.025200
     32 H5'1         2.2160    -3.0890    -0.0410 h1         1 O02       0.001700
     33 H5'2         1.7570    -2.5860     1.5940 h1         1 O02       0.001700
     34 H4          -0.0380    -3.9150     0.9180 h1         1 O02       0.077700
     35 H3           0.5960    -3.6360    -1.7540 h1         1 O02       0.035700
     36 HO3         -1.8720    -3.9710    -2.0780 ho         1 O02       0.489000
     37 H2           0.0430    -1.2550    -1.7900 h1         1 O02       0.081700
     38 HO2         -0.9470    -1.8650    -3.6260 ho         1 O02       0.484000
     39 H1          -2.6200    -2.0350    -0.4470 h2         1 O02       0.077700
     40 H5          -0.1540     0.8180    -1.0490 h5         1 O02       0.167800
     41 H61         -2.9990     4.3630     0.5910 hn         1 O02       0.487500
     42 H62         -4.5300     4.4500     1.4000 hn         1 O02       0.487500
     43 H7          -6.2150    -0.9600     1.8800 hn         1 O02       0.471000
     44 H12         -8.2910     0.6450     1.9660 hn         1 O02       0.369500
     45 H11         -7.5510     0.6350     3.4810 hn         1 O02       0.369500
@<TRIPOS>BOND
     1     1     2 1   
     2     1     3 1   
     3     1     4 1   
     4     1     8 1   
     5     5     6 1   
     6     5     7 1   
     7     5     8 1   
     8     5     9 1   
     9     8    30 1   
    10     8    31 1   
    11     9    10 1   
    12    10    11 1   
    13    10    32 1   
    14    10    33 1   
    15    11    12 1   
    16    11    13 1   
    17    11    34 1   
    18    12    17 1   
    19    13    14 1   
    20    13    15 1   
    21    13    35 1   
    22    14    36 1   
    23    15    16 1   
    24    15    17 1   
    25    15    37 1   
    26    16    38 1   
    27    17    18 1   
    28    17    39 1   
    29    18    19 1   
    30    18    27 1   
    31    19    20 2   
    32    19    40 1   
    33    20    21 1   
    34    21    22 ar  
    35    21    27 ar  
    36    22    23 1   
    37    22    24 ar  
    38    23    41 1   
    39    23    42 1   
    40    24    25 ar  
    41    25    26 ar  
    42    25    28 1   
    43    26    27 ar  
    44    28    29 1   
    45    28    43 1   
    46    29    44 1   
    47    29    45 1   
@<TRIPOS>SUBSTRUCTURE
     1 O02         1 TEMP              0 ****  ****    0 ROOT
