@<TRIPOS>MOLECULE
O02
   45    47     1     0     0
SMALL
abcg2


@<TRIPOS>ATOM
      1 PB           2.6720     2.4770     0.8800 p5         1 O02       1.337500
      2 O1B          4.1250     2.8090     0.5150 o          1 O02      -0.952167
      3 O2B          2.3030     2.8660     2.3230 o          1 O02      -0.952167
      4 O3B          1.6500     2.9550    -0.1520 o          1 O02      -0.952167
      5 PA           3.1670    -0.2500    -0.5770 p5         1 O02       1.412400
      6 O1A          4.6730    -0.3040    -0.5970 o          1 O02      -0.851000
      7 O2A          2.4290     0.1660    -1.8290 o          1 O02      -0.851000
      8 C3A          2.5650     0.6090     0.8920 c3         1 O02      -0.745400
      9 O5           2.7200    -1.8450    -0.2450 os         1 O02      -0.586400
     10 C5           1.6790    -2.4900    -0.9180 c3         1 O02       0.235600
     11 C4           0.5380    -2.8580     0.0140 c5         1 O02       0.141300
     12 O4          -0.0750    -1.6910     0.5800 os         1 O02      -0.394000
     13 C3          -0.5750    -3.5950    -0.7220 c5         1 O02       0.093300
     14 O3          -1.2350    -4.4510     0.1760 oh         1 O02      -0.721000
     15 C2          -1.4750    -2.4290    -1.1310 c5         1 O02       0.058300
     16 O2          -2.8060    -2.7670    -1.3870 oh         1 O02      -0.711000
     17 C1          -1.3840    -1.5440     0.1110 c5         1 O02       0.334300
     18 N9          -1.6660    -0.1540    -0.1380 na         1 O02      -0.304300
     19 C8          -0.8720     0.7800    -0.7740 cc         1 O02       0.502700
     20 N7          -1.4680     1.9220    -0.9250 nd         1 O02      -0.502100
     21 C7          -2.7100     1.7480    -0.3630 ca         1 O02      -0.089600
     22 C6          -3.8130     2.5970    -0.1790 ca         1 O02       0.438900
     23 N6          -3.8250     3.8610    -0.6340 nv         1 O02      -1.071900
     24 N1          -4.8930     2.1300     0.4460 nb         1 O02      -0.335000
     25 C10         -4.8930     0.8660     0.8780 ca         1 O02       0.397900
     26 N3          -3.9140    -0.0350     0.7550 nb         1 O02      -0.285000
     27 C9          -2.8520     0.4640     0.1370 ca         1 O02       0.128500
     28 N4          -5.9880     0.4160     1.5470 nu         1 O02      -0.749900
     29 N5          -7.1620     1.1400     1.6010 n8         1 O02      -0.679000
     30 H3A2         3.1260     0.2250     1.7510 hc         1 O02       0.025200
     31 H3A1         1.5220     0.3290     1.0540 hc         1 O02       0.025200
     32 H5'1         1.3080    -1.8870    -1.7540 h1         1 O02       0.001700
     33 H5'2         2.0540    -3.4280    -1.3480 h1         1 O02       0.001700
     34 H4           0.9260    -3.4690     0.8360 h1         1 O02       0.077700
     35 H3          -0.1920    -4.1430    -1.5940 h1         1 O02       0.035700
     36 HO3         -2.1080    -4.6430    -0.1850 ho         1 O02       0.489000
     37 H2          -1.0200    -1.9060    -1.9820 h1         1 O02       0.081700
     38 HO2         -2.8790    -3.0640    -2.2990 ho         1 O02       0.484000
     39 H1          -2.1200    -1.8730     0.8540 h2         1 O02       0.077700
     40 H5           0.1460     0.5640    -1.0750 h5         1 O02       0.167800
     41 H61         -2.9650     4.2850    -0.9340 hn         1 O02       0.487500
     42 H62         -4.5530     4.4810    -0.3230 hn         1 O02       0.487500
     43 H7          -6.0140    -0.5790     1.7210 hn         1 O02       0.471000
     44 H12         -7.8630     0.7120     1.0080 hn         1 O02       0.369500
     45 H11         -7.5120     1.1260     2.5490 hn         1 O02       0.369500
@<TRIPOS>BOND
     1     1     2 1   
     2     1     3 1   
     3     1     4 1   
     4     1     8 1   
     5     5     6 1   
     6     5     7 1   
     7     5     8 1   
     8     5     9 1   
     9     8    30 1   
    10     8    31 1   
    11     9    10 1   
    12    10    11 1   
    13    10    32 1   
    14    10    33 1   
    15    11    12 1   
    16    11    13 1   
    17    11    34 1   
    18    12    17 1   
    19    13    14 1   
    20    13    15 1   
    21    13    35 1   
    22    14    36 1   
    23    15    16 1   
    24    15    17 1   
    25    15    37 1   
    26    16    38 1   
    27    17    18 1   
    28    17    39 1   
    29    18    19 1   
    30    18    27 1   
    31    19    20 2   
    32    19    40 1   
    33    20    21 1   
    34    21    22 ar  
    35    21    27 ar  
    36    22    23 1   
    37    22    24 ar  
    38    23    41 1   
    39    23    42 1   
    40    24    25 ar  
    41    25    26 ar  
    42    25    28 1   
    43    26    27 ar  
    44    28    29 1   
    45    28    43 1   
    46    29    44 1   
    47    29    45 1   
@<TRIPOS>SUBSTRUCTURE
     1 O02         1 TEMP              0 ****  ****    0 ROOT
