@<TRIPOS>MOLECULE
O04
   35    36     1     0     0
SMALL
abcg2


@<TRIPOS>ATOM
      1 C1          -5.3250     0.6800    -0.1420 ce         1 O04       0.657800
      2 N1          -6.2810    -0.2730     0.0590 nv         1 O04      -1.075200
      3 O1           2.2940    -1.0400     0.2350 os         1 O04      -0.304000
      4 C2          -3.9190     0.1910    -0.1020 ca         1 O04      -0.131900
      5 N2           1.0910    -0.3940     0.2710 n2         1 O04      -0.308700
      6 O2           3.4750     0.6280    -0.7130 os         1 O04      -0.472000
      7 C3          -2.8870     1.0890     0.1790 ca         1 O04      -0.085500
      8 N3          -5.5310     1.9130    -0.4050 n2         1 O04      -0.824100
      9 C4          -1.5730     0.6700     0.2150 ca         1 O04      -0.092000
     10 C5          -1.2480    -0.6650    -0.0450 ca         1 O04      -0.123900
     11 C6           0.1260    -1.1600    -0.0330 ce         1 O04       0.415800
     12 C7           3.3460    -0.1460     0.4470 c6         1 O04       0.400300
     13 C8           4.5170     1.5830    -0.6140 c6         1 O04       0.168600
     14 C9           5.8610     0.9110    -0.3930 c6         1 O04      -0.117400
     15 C10          5.7940     0.0000     0.8280 c6         1 O04      -0.074400
     16 C11          4.6020    -0.9490     0.7250 c6         1 O04      -0.110400
     17 C12         -2.2750    -1.5580    -0.3380 ca         1 O04      -0.092000
     18 C13         -3.5960    -1.1370    -0.3630 ca         1 O04      -0.085500
     19 HN1         -7.2310     0.0450     0.1730 hn         1 O04       0.461000
     20 HN1A        -6.0530    -1.0680     0.6330 hn         1 O04       0.461000
     21 H3          -3.1270     2.1240     0.3770 ha         1 O04       0.129000
     22 HN3         -6.5230     2.1350    -0.3830 hn         1 O04       0.371400
     23 H4          -0.7900     1.3820     0.4420 ha         1 O04       0.125000
     24 H6           0.2850    -2.2060    -0.2950 h4         1 O04       0.006800
     25 H7           3.1170     0.5050     1.3070 h2         1 O04       0.040700
     26 H8           4.5040     2.1560    -1.5410 h1         1 O04       0.046700
     27 H8A          4.3140     2.2830     0.2100 h1         1 O04       0.046700
     28 H9           6.1320     0.3330    -1.2800 hc         1 O04       0.052200
     29 H9A          6.6290     1.6770    -0.2630 hc         1 O04       0.052200
     30 H10          6.7180    -0.5700     0.9370 hc         1 O04       0.043700
     31 H10A         5.6950     0.6110     1.7320 hc         1 O04       0.043700
     32 H11          4.4810    -1.5160     1.6510 hc         1 O04       0.061200
     33 H11A         4.7630    -1.6670    -0.0850 hc         1 O04       0.061200
     34 H12         -2.0440    -2.5940    -0.5530 ha         1 O04       0.125000
     35 H13         -4.3660    -1.8560    -0.6110 ha         1 O04       0.129000
@<TRIPOS>BOND
     1     1     2 1   
     2     1     4 1   
     3     1     8 2   
     4     2    19 1   
     5     2    20 1   
     6     3     5 1   
     7     3    12 1   
     8     4     7 ar  
     9     4    18 ar  
    10     5    11 2   
    11     6    12 1   
    12     6    13 1   
    13     7     9 ar  
    14     7    21 1   
    15     8    22 1   
    16     9    10 ar  
    17     9    23 1   
    18    10    11 1   
    19    10    17 ar  
    20    11    24 1   
    21    12    16 1   
    22    12    25 1   
    23    13    14 1   
    24    13    26 1   
    25    13    27 1   
    26    14    15 1   
    27    14    28 1   
    28    14    29 1   
    29    15    16 1   
    30    15    30 1   
    31    15    31 1   
    32    16    32 1   
    33    16    33 1   
    34    17    18 ar  
    35    17    34 1   
    36    18    35 1   
@<TRIPOS>SUBSTRUCTURE
     1 O04         1 TEMP              0 ****  ****    0 ROOT
