@<TRIPOS>MOLECULE
O04
   35    36     1     0     0
SMALL
No Charge or Current Charge


@<TRIPOS>ATOM
      1 C1          -5.5080     0.6550    -0.2060 ce         1 O04       0.657800
      2 N1          -6.4900    -0.2450     0.0210 nv         1 O04      -1.075200
      3 O1           2.3150    -0.9580     0.2780 os         1 O04      -0.304000
      4 C2          -4.0820     0.1900    -0.1130 ca         1 O04      -0.131900
      5 N2           1.0510    -0.3210     0.2590 n2         1 O04      -0.308700
      6 O2           3.6320     0.7480    -0.6680 os         1 O04      -0.472000
      7 C3          -3.0400     1.1200     0.1050 ca         1 O04      -0.085500
      8 N3          -5.8360     1.8670    -0.3910 n2         1 O04      -0.824100
      9 C4          -1.6990     0.7040     0.1650 ca         1 O04      -0.092000
     10 C5          -1.3600    -0.6550    -0.0090 ca         1 O04      -0.123900
     11 C6           0.0590    -1.1310     0.0470 ce         1 O04       0.415800
     12 C7           3.4650    -0.1110     0.4810 c6         1 O04       0.400300
     13 C8           4.7190     1.6870    -0.5370 c6         1 O04       0.168600
     14 C9           6.0590     0.9230    -0.3990 c6         1 O04      -0.117400
     15 C10          5.9950    -0.0860     0.7750 c6         1 O04      -0.074400
     16 C11          4.7340    -0.9800     0.6560 c6         1 O04      -0.110400
     17 C12         -2.3920    -1.5830    -0.2510 ca         1 O04      -0.092000
     18 C13         -3.7340    -1.1680    -0.3090 ca         1 O04      -0.085500
     19 HN1         -7.3620     0.1340     0.3720 hn         1 O04       0.461000
     20 HN1A        -6.1930    -1.1100     0.4580 hn         1 O04       0.461000
     21 H3          -3.2680     2.1750     0.2400 ha         1 O04       0.129000
     22 HN3         -6.8340     1.8930    -0.6240 hn         1 O04       0.371400
     23 H4          -0.9250     1.4480     0.3440 ha         1 O04       0.125000
     24 H6           0.2220    -2.2020    -0.1010 h4         1 O04       0.006800
     25 H7           3.3110     0.5010     1.3830 h2         1 O04       0.040700
     26 H8           4.7450     2.3340    -1.4260 h1         1 O04       0.046700
     27 H8A          4.5470     2.3230     0.3450 h1         1 O04       0.046700
     28 H9           6.2750     0.3930    -1.3370 hc         1 O04       0.052200
     29 H9A          6.8810     1.6340    -0.2430 hc         1 O04       0.052200
     30 H10          6.9010    -0.7070     0.7920 hc         1 O04       0.043700
     31 H10A         5.9700     0.4600     1.7280 hc         1 O04       0.043700
     32 H11          4.6340    -1.6090     1.5500 hc         1 O04       0.061200
     33 H11A         4.8350    -1.6580    -0.2020 hc         1 O04       0.061200
     34 H12         -2.1540    -2.6350    -0.4010 ha         1 O04       0.125000
     35 H13         -4.4980    -1.9120    -0.5200 ha         1 O04       0.129000
@<TRIPOS>BOND
     1     1     2 1   
     2     1     4 1   
     3     1     8 2   
     4     2    19 1   
     5     2    20 1   
     6     3     5 1   
     7     3    12 1   
     8     4     7 ar  
     9     4    18 ar  
    10     5    11 2   
    11     6    12 1   
    12     6    13 1   
    13     7     9 ar  
    14     7    21 1   
    15     8    22 1   
    16     9    10 ar  
    17     9    23 1   
    18    10    11 1   
    19    10    17 ar  
    20    11    24 1   
    21    12    16 1   
    22    12    25 1   
    23    13    14 1   
    24    13    26 1   
    25    13    27 1   
    26    14    15 1   
    27    14    28 1   
    28    14    29 1   
    29    15    16 1   
    30    15    30 1   
    31    15    31 1   
    32    16    32 1   
    33    16    33 1   
    34    17    18 ar  
    35    17    34 1   
    36    18    35 1   
@<TRIPOS>SUBSTRUCTURE
     1 O04         1 TEMP              0 ****  ****    0 ROOT
