@<TRIPOS>MOLECULE
O05
   56    59     1     0     0
SMALL
No Charge or Current Charge


@<TRIPOS>ATOM
      1 C2         -12.4650    24.4720   -36.9120 ca         1 O05       0.371900
      2 C3         -15.2440    18.6170   -28.9860 c3         1 O05      -0.738400
      3 C4         -14.5420    23.5540   -36.5650 ca         1 O05       0.147500
      4 C5         -14.8800    23.8130   -37.8670 ca         1 O05      -0.110600
      5 C6         -13.9120    24.4280   -38.6850 ca         1 O05       0.466900
      6 C8         -16.6280    22.8990   -37.0010 cc         1 O05       0.449700
      7 C9         -10.8390    24.6590   -34.9470 c6         1 O05       0.204300
      8 C10        -11.0880    25.9900   -34.1780 c6         1 O05       0.032100
      9 C11        -10.5170    27.2420   -36.4610 c6         1 O05       0.032100
     10 C12        -10.3070    25.8300   -37.0850 c6         1 O05       0.204300
     11 O2A        -17.0990    18.4850   -31.0140 o          1 O05      -0.832000
     12 PA         -15.6670    18.2570   -30.6710 p5         1 O05       1.426400
     13 O1A        -15.2390    16.8510   -30.9360 o          1 O05      -0.832000
     14 PB         -16.1680    20.0700   -28.5800 p5         1 O05       1.339500
     15 O3B        -17.5320    19.6360   -28.1710 o          1 O05      -0.833500
     16 O1B        -16.1990    21.0700   -29.6830 o          1 O05      -0.833500
     17 O2B        -15.4660    20.6260   -27.3890 o          1 O05      -0.833500
     18 O5         -14.6530    19.2720   -31.4040 os         1 O05      -0.602400
     19 C14        -15.2380    20.9820   -33.0130 c5         1 O05       0.086300
     20 O4         -14.9090    21.4380   -34.3490 os         1 O05      -0.492000
     21 C13        -16.7740    21.2720   -32.8200 c5         1 O05       0.143300
     22 O7         -17.0370    22.2110   -31.7430 oh         1 O05      -0.892000
     23 C7         -17.1650    21.9500   -34.1690 c5         1 O05       0.106300
     24 O8         -18.1480    22.9330   -33.8570 oh         1 O05      -0.740000
     25 C1         -15.7900    22.5360   -34.6190 c5         1 O05       0.264300
     26 N9         -15.6430    22.9680   -36.0080 na         1 O05      -0.236300
     27 N7         -16.1860    23.4120   -38.1690 nd         1 O05      -0.600100
     28 N6         -14.1400    24.7340   -39.9870 nv         1 O05      -1.080900
     29 N3         -13.3370    23.8760   -36.0600 nb         1 O05      -0.229000
     30 N1         -12.7060    24.7610   -38.2120 nb         1 O05      -0.378000
     31 N2         -11.1840    24.8170   -36.4020 nh         1 O05      -0.753300
     32 N4         -10.3380    27.1530   -34.9090 ny         1 O05      -0.810000
     33 H19        -15.5350    17.7880   -28.3390 hc         1 O05       0.054700
     34 H18        -14.1720    18.8040   -28.9020 hc         1 O05       0.054700
     35 H15        -17.6140    22.4860   -36.8210 h5         1 O05       0.093800
     36 H13        -11.4020    23.8440   -34.4690 h1         1 O05       0.084200
     37 H14         -9.7780    24.3850   -34.8440 h1         1 O05       0.084200
     38 H11        -10.7300    25.9480   -33.1440 hx         1 O05       0.090200
     39 H12        -12.1530    26.2460   -34.1820 hx         1 O05       0.090200
     40 H9          -9.8030    27.9790   -36.8460 hx         1 O05       0.090200
     41 H8         -11.5370    27.5980   -36.6440 hx         1 O05       0.090200
     42 H7         -10.4820    25.8790   -38.1690 h1         1 O05       0.084200
     43 H6          -9.2500    25.5460   -36.9680 h1         1 O05       0.084200
     44 H16        -15.4920    18.8280   -33.2840 h1         1 O05       0.005700
     45 H17        -13.8010    19.3740   -33.2910 h1         1 O05       0.005700
     46 H1         -14.6580    21.6000   -32.3130 h1         1 O05       0.088700
     47 H2         -17.3430    20.3370   -32.6910 h1         1 O05       0.143700
     48 H23        -16.6910    21.7470   -30.8830 ho         1 O05       0.635000
     49 H3         -17.5410    21.2090   -34.8890 h1         1 O05       0.063700
     50 H24        -17.9850    22.9680   -32.8630 ho         1 O05       0.540000
     51 H          -15.5160    23.3970   -33.9940 h2         1 O05       0.079700
     52 H5         -13.5390    25.4290   -40.4200 hn         1 O05       0.497000
     53 H4         -15.1070    24.7030   -40.3020 hn         1 O05       0.497000
     54 H10         -9.3220    27.0620   -34.7040 hn         1 O05       0.428500
     55 H25        -10.6100    28.0610   -34.4780 hn         1 O05       0.428500
     56 C15        -14.7770    19.5130   -32.8090 c3         1 O05       0.239600
@<TRIPOS>BOND
     1     1    29 ar  
     2     1    30 ar  
     3     1    31 1   
     4     2    12 1   
     5     2    14 1   
     6     2    33 1   
     7     2    34 1   
     8     3     4 ar  
     9     3    26 1   
    10     3    29 ar  
    11     4     5 ar  
    12     4    27 1   
    13     5    28 1   
    14     5    30 ar  
    15     6    26 1   
    16     6    27 2   
    17     6    35 1   
    18     7     8 1   
    19     7    31 1   
    20     7    36 1   
    21     7    37 1   
    22     8    32 1   
    23     8    38 1   
    24     8    39 1   
    25     9    10 1   
    26     9    32 1   
    27     9    40 1   
    28     9    41 1   
    29    10    31 1   
    30    10    42 1   
    31    10    43 1   
    32    11    12 1   
    33    12    13 1   
    34    12    18 1   
    35    14    15 1   
    36    14    16 1   
    37    14    17 1   
    38    18    56 1   
    39    19    20 1   
    40    19    21 1   
    41    19    46 1   
    42    19    56 1   
    43    20    25 1   
    44    21    22 1   
    45    21    23 1   
    46    21    47 1   
    47    22    48 1   
    48    23    24 1   
    49    23    25 1   
    50    23    49 1   
    51    24    50 1   
    52    25    26 1   
    53    25    51 1   
    54    28    52 1   
    55    28    53 1   
    56    32    54 1   
    57    32    55 1   
    58    44    56 1   
    59    45    56 1   
@<TRIPOS>SUBSTRUCTURE
     1 O05         1 TEMP              0 ****  ****    0 ROOT
