@<TRIPOS>MOLECULE
O05
   56    59     1     0     0
SMALL
abcg2


@<TRIPOS>ATOM
      1 C2         -12.2480    24.5530   -36.8130 ca         1 O05       0.371900
      2 C3         -16.0600    18.9960   -29.8100 c3         1 O05      -0.738400
      3 C4         -13.7410    22.9750   -36.4430 ca         1 O05       0.147500
      4 C5         -14.2420    23.0440   -37.7320 ca         1 O05      -0.110600
      5 C6         -13.6280    23.9900   -38.5750 ca         1 O05       0.466900
      6 C8         -15.3970    21.5750   -36.7480 cc         1 O05       0.449700
      7 C9         -10.8960    25.4060   -34.9730 c6         1 O05       0.204300
      8 C10        -11.7300    26.4840   -34.3050 c6         1 O05       0.032100
      9 C11        -11.7300    27.7090   -36.4810 c6         1 O05       0.032100
     10 C12        -10.9000    26.5780   -37.0640 c6         1 O05       0.204300
     11 O2A        -18.2660    20.0110   -31.2110 o          1 O05      -0.832000
     12 PA         -17.5110    18.7450   -30.8920 p5         1 O05       1.426400
     13 O1A        -18.2790    17.5410   -30.4110 o          1 O05      -0.832000
     14 PB         -16.1300    20.3580   -28.5480 p5         1 O05       1.339500
     15 O3B        -17.5300    20.3510   -27.9460 o          1 O05      -0.833500
     16 O1B        -15.8310    21.6700   -29.3450 o          1 O05      -0.833500
     17 O2B        -15.0060    20.0370   -27.5620 o          1 O05      -0.833500
     18 O5         -16.7870    18.2190   -32.3140 os         1 O05      -0.602400
     19 C14        -15.2070    19.9400   -33.0760 c5         1 O05       0.086300
     20 O4         -14.5860    20.2690   -34.3310 os         1 O05      -0.492000
     21 C13        -15.5190    21.2740   -32.3750 c5         1 O05       0.143300
     22 O7         -14.5580    21.6620   -31.4430 oh         1 O05      -0.892000
     23 C7         -15.4930    22.2620   -33.5490 c5         1 O05       0.106300
     24 O8         -15.2390    23.5730   -33.1600 oh         1 O05      -0.740000
     25 C1         -14.4030    21.6480   -34.4310 c5         1 O05       0.264300
     26 N9         -14.4890    22.0210   -35.8210 na         1 O05      -0.236300
     27 N7         -15.2760    22.1580   -37.9040 nd         1 O05      -0.600100
     28 N6         -14.0000    24.1670   -39.8440 nv         1 O05      -1.080900
     29 N3         -12.7520    23.6990   -35.9320 nb         1 O05      -0.229000
     30 N1         -12.6380    24.7310   -38.0810 nb         1 O05      -0.378000
     31 N2         -11.1930    25.3320   -36.3890 nh         1 O05      -0.753300
     32 N4         -11.5120    27.7850   -35.0060 ny         1 O05      -0.810000
     33 H19        -15.9100    18.0490   -29.2850 hc         1 O05       0.054700
     34 H18        -15.1550    19.1430   -30.4060 hc         1 O05       0.054700
     35 H15        -16.1170    20.8050   -36.5160 h5         1 O05       0.093800
     36 H13        -11.0940    24.4550   -34.4890 h1         1 O05       0.084200
     37 H14         -9.8320    25.6270   -34.8540 h1         1 O05       0.084200
     38 H11        -11.4550    26.6250   -33.2630 hx         1 O05       0.090200
     39 H12        -12.7940    26.2580   -34.3670 hx         1 O05       0.090200
     40 H9         -11.4550    28.6740   -36.9000 hx         1 O05       0.090200
     41 H8         -12.7940    27.5420   -36.6380 hx         1 O05       0.090200
     42 H7         -11.1090    26.4980   -38.1260 h1         1 O05       0.084200
     43 H6          -9.8350    26.7970   -36.9530 h1         1 O05       0.084200
     44 H16        -17.2780    19.7190   -33.6630 h1         1 O05       0.005700
     45 H17        -16.2090    18.4380   -34.2290 h1         1 O05       0.005700
     46 H1         -14.4950    19.3560   -32.4830 h1         1 O05       0.088700
     47 H2         -16.5120    21.2300   -31.9180 h1         1 O05       0.143700
     48 H23        -15.0470    21.6540   -30.5120 ho         1 O05       0.635000
     49 H3         -16.4440    22.2370   -34.0960 h1         1 O05       0.063700
     50 H24        -14.6930    23.4890   -32.3620 ho         1 O05       0.540000
     51 H          -13.4110    21.9670   -34.0860 h2         1 O05       0.079700
     52 H5         -13.5690    24.8810   -40.4050 hn         1 O05       0.497000
     53 H4         -14.7690    23.6530   -40.2350 hn         1 O05       0.497000
     54 H10        -10.5630    28.1150   -34.8200 hn         1 O05       0.428500
     55 H25        -12.1260    28.4950   -34.6080 hn         1 O05       0.428500
     56 C15        -16.4360    19.0780   -33.3710 c3         1 O05       0.239600
@<TRIPOS>BOND
     1     1    29 ar  
     2     1    30 ar  
     3     1    31 1   
     4     2    12 1   
     5     2    14 1   
     6     2    33 1   
     7     2    34 1   
     8     3     4 ar  
     9     3    26 1   
    10     3    29 ar  
    11     4     5 ar  
    12     4    27 1   
    13     5    28 1   
    14     5    30 ar  
    15     6    26 1   
    16     6    27 2   
    17     6    35 1   
    18     7     8 1   
    19     7    31 1   
    20     7    36 1   
    21     7    37 1   
    22     8    32 1   
    23     8    38 1   
    24     8    39 1   
    25     9    10 1   
    26     9    32 1   
    27     9    40 1   
    28     9    41 1   
    29    10    31 1   
    30    10    42 1   
    31    10    43 1   
    32    11    12 1   
    33    12    13 1   
    34    12    18 1   
    35    14    15 1   
    36    14    16 1   
    37    14    17 1   
    38    18    56 1   
    39    19    20 1   
    40    19    21 1   
    41    19    46 1   
    42    19    56 1   
    43    20    25 1   
    44    21    22 1   
    45    21    23 1   
    46    21    47 1   
    47    22    48 1   
    48    23    24 1   
    49    23    25 1   
    50    23    49 1   
    51    24    50 1   
    52    25    26 1   
    53    25    51 1   
    54    28    52 1   
    55    28    53 1   
    56    32    54 1   
    57    32    55 1   
    58    44    56 1   
    59    45    56 1   
@<TRIPOS>SUBSTRUCTURE
     1 O05         1 TEMP              0 ****  ****    0 ROOT
