@<TRIPOS>MOLECULE
O06
   60    62     1     0     0
SMALL
abcg2


@<TRIPOS>ATOM
      1 C4          21.2760    39.0690     6.4870 ca         1 O06      -0.051200
      2 C14         20.5000    38.7540     4.1200 c3         1 O06       0.066900
      3 C5          20.6130    39.2410     7.7120 ca         1 O06       0.048400
      4 C6          21.3560    39.3920     8.8800 ca         1 O06      -0.025000
      5 C7          22.7450    39.3870     8.8290 ca         1 O06      -0.122300
      6 C8          23.5480    39.6570    10.1050 c3         1 O06       0.229300
      7 C10         22.7280    39.5110    11.3860 c3         1 O06      -0.117100
      8 C12         19.0780    39.0740     6.2070 cc         1 O06       0.418800
      9 N1          24.7960    39.2120     7.5300 ns         1 O06      -0.126000
     10 C3          22.6580    39.0430     6.3880 ca         1 O06      -0.146000
     11 F28         28.2250    40.5650    10.6680 f          1 O06      -0.105000
     12 F29         28.3570    38.4040    10.6290 f          1 O06      -0.105000
     13 F30         30.1510    39.6010    10.3970 f          1 O06      -0.105000
     14 C23         28.6360    39.5430     8.5690 ca         1 O06       0.243300
     15 N22         27.3650    39.4640     8.1980 nb         1 O06      -0.636000
     16 C24         29.6950    39.6420     7.6780 ca         1 O06      -0.095000
     17 C25         29.3930    39.6620     6.3200 ca         1 O06      -0.084000
     18 C26         28.0680    39.5910     5.9190 ca         1 O06      -0.081000
     19 C21         27.0800    39.4930     6.8970 ca         1 O06       0.293500
     20 C20         25.6260    39.4470     6.4940 c          1 O06       0.511600
     21 O31         25.2980    39.6310     5.3220 o          1 O06      -0.602100
     22 C2          23.3890    39.2140     7.5640 ca         1 O06       0.009000
     23 C33         24.1700    41.0600    10.0540 c3         1 O06      -0.117100
     24 O9          24.6010    38.6550    10.1500 oh         1 O06      -0.675000
     25 N11         19.2420    39.2390     7.5060 nd         1 O06      -0.572100
     26 N13         20.2780    38.9650     5.5380 na         1 O06      -0.187600
     27 C15         17.7570    38.9810     5.5300 c3         1 O06      -0.090700
     28 C16         17.3650    37.5320     5.2060 c3         1 O06      -0.100400
     29 C17         15.9380    37.3660     4.6570 c3         1 O06       0.177000
     30 C19         15.7120    38.1680     3.3810 c3         1 O06      -0.099600
     31 C32         15.6610    35.8820     4.4140 c3         1 O06      -0.099600
     32 O18         14.9830    37.8800     5.6110 oh         1 O06      -0.666000
     33 H1          21.2740    39.4360     3.7680 h1         1 O06       0.052367
     34 H2          20.8170    37.7270     3.9290 h1         1 O06       0.052367
     35 H3          19.5850    38.9520     3.5710 h1         1 O06       0.052367
     36 H4          20.8390    39.5270     9.8180 ha         1 O06       0.130000
     37 H5          23.4020    39.6170    12.2390 hc         1 O06       0.046867
     38 H6          21.9620    40.2820    11.4730 hc         1 O06       0.046867
     39 H7          22.2550    38.5310    11.4370 hc         1 O06       0.046867
     40 H8          25.2470    39.0640     8.4290 hn         1 O06       0.207000
     41 H9          23.1660    38.9050     5.4490 ha         1 O06       0.149000
     42 H10         30.7150    39.7030     8.0270 ha         1 O06       0.146000
     43 H11         30.1860    39.7350     5.5880 ha         1 O06       0.134000
     44 H12         27.7880    39.6110     4.8760 ha         1 O06       0.156000
     45 H13         24.7960    41.2200    10.9350 hc         1 O06       0.046867
     46 H14         24.7810    41.1960     9.1640 hc         1 O06       0.046867
     47 H15         23.3810    41.8140    10.0510 hc         1 O06       0.046867
     48 H16         25.1910    38.8730    10.8830 ho         1 O06       0.450000
     49 H17         17.7660    39.5830     4.6200 hc         1 O06       0.072200
     50 H18         17.0160    39.4140     6.2000 hc         1 O06       0.072200
     51 H19         17.4490    36.9330     6.1170 hc         1 O06       0.048700
     52 H20         18.0650    37.1060     4.4830 hc         1 O06       0.048700
     53 H21         15.8150    39.2370     3.5640 hc         1 O06       0.043200
     54 H22         16.4350    37.8750     2.6180 hc         1 O06       0.043200
     55 H23         14.7080    37.9820     2.9970 hc         1 O06       0.043200
     56 H24         15.7900    35.3140     5.3380 hc         1 O06       0.043200
     57 H25         14.6380    35.7440     4.0600 hc         1 O06       0.043200
     58 H26         16.3450    35.4770     3.6660 hc         1 O06       0.043200
     59 H27         15.0740    37.3710     6.4280 ho         1 O06       0.442000
     60 C27         28.8490    39.5280    10.0670 c3         1 O06       0.255700
@<TRIPOS>BOND
     1     1     3 ar  
     2     1    10 ar  
     3     1    26 1   
     4     2    26 1   
     5     2    33 1   
     6     2    34 1   
     7     2    35 1   
     8     3     4 ar  
     9     3    25 1   
    10     4     5 ar  
    11     4    36 1   
    12     5     6 1   
    13     5    22 ar  
    14     6     7 1   
    15     6    23 1   
    16     6    24 1   
    17     7    37 1   
    18     7    38 1   
    19     7    39 1   
    20     8    25 2   
    21     8    26 1   
    22     8    27 1   
    23     9    20 1   
    24     9    22 1   
    25     9    40 1   
    26    10    22 ar  
    27    10    41 1   
    28    11    60 1   
    29    12    60 1   
    30    13    60 1   
    31    14    15 ar  
    32    14    16 ar  
    33    14    60 1   
    34    15    19 ar  
    35    16    17 ar  
    36    16    42 1   
    37    17    18 ar  
    38    17    43 1   
    39    18    19 ar  
    40    18    44 1   
    41    19    20 1   
    42    20    21 2   
    43    23    45 1   
    44    23    46 1   
    45    23    47 1   
    46    24    48 1   
    47    27    28 1   
    48    27    49 1   
    49    27    50 1   
    50    28    29 1   
    51    28    51 1   
    52    28    52 1   
    53    29    30 1   
    54    29    31 1   
    55    29    32 1   
    56    30    53 1   
    57    30    54 1   
    58    30    55 1   
    59    31    56 1   
    60    31    57 1   
    61    31    58 1   
    62    32    59 1   
@<TRIPOS>SUBSTRUCTURE
     1 O06         1 TEMP              0 ****  ****    0 ROOT
