@<TRIPOS>MOLECULE
O06
   60    62     1     0     0
SMALL
No Charge or Current Charge


@<TRIPOS>ATOM
      1 C4          21.1920    39.1940     6.4990 ca         1 O06      -0.051200
      2 C14         20.5000    38.8450     4.1270 c3         1 O06       0.066900
      3 C5          20.5600    39.3460     7.6920 ca         1 O06       0.048400
      4 C6          21.2930    39.5170     8.8710 ca         1 O06      -0.025000
      5 C7          22.7180    39.5320     8.8250 ca         1 O06      -0.122300
      6 C8          23.5380    39.7330    10.1360 c3         1 O06       0.229300
      7 C10         22.7140    39.5430    11.4340 c3         1 O06      -0.117100
      8 C12         18.9890    39.1140     6.2270 cc         1 O06       0.418800
      9 N1          24.7860    39.4070     7.4770 ns         1 O06      -0.126000
     10 C3          22.5830    39.2060     6.3760 ca         1 O06      -0.146000
     11 F28         27.9650    39.4560    10.8720 f          1 O06      -0.105000
     12 F29         29.6260    38.1330    10.4090 f          1 O06      -0.105000
     13 F30         29.9350    40.2820    10.4830 f          1 O06      -0.105000
     14 C23         28.7580    39.4160     8.5830 ca         1 O06       0.243300
     15 N22         27.4560    39.4300     8.1900 nb         1 O06      -0.636000
     16 C24         29.8130    39.4770     7.6510 ca         1 O06      -0.095000
     17 C25         29.5210    39.5620     6.2810 ca         1 O06      -0.084000
     18 C26         28.1740    39.5810     5.8830 ca         1 O06      -0.081000
     19 C21         27.1560    39.5110     6.8590 ca         1 O06       0.293500
     20 C20         25.6890    39.5400     6.4270 c          1 O06       0.511600
     21 O31         25.3500    39.6890     5.2530 o          1 O06      -0.602100
     22 C2          23.3640    39.3870     7.5460 ca         1 O06       0.009000
     23 C33         24.1960    41.1330    10.1580 c3         1 O06      -0.117100
     24 O9          24.5780    38.7570    10.2020 oh         1 O06      -0.675000
     25 N11         19.1740    39.3010     7.5510 nd         1 O06      -0.572100
     26 N13         20.2170    39.0450     5.5590 na         1 O06      -0.187600
     27 C15         17.6400    38.9890     5.5690 c3         1 O06      -0.090700
     28 C16         17.2560    37.5170     5.2490 c3         1 O06      -0.100400
     29 C17         15.8540    37.2970     4.6070 c3         1 O06       0.177000
     30 C19         15.7040    38.0360     3.2560 c3         1 O06      -0.099600
     31 C32         15.5880    35.7860     4.4160 c3         1 O06      -0.099600
     32 O18         14.8570    37.8010     5.4960 oh         1 O06      -0.666000
     33 H1          21.0990    39.6840     3.7510 h1         1 O06       0.052367
     34 H2          21.0600    37.9110     3.9910 h1         1 O06       0.052367
     35 H3          19.5670    38.7880     3.5550 h1         1 O06       0.052367
     36 H4          20.7400    39.6380     9.7960 ha         1 O06       0.130000
     37 H5          23.3600    39.5850    12.3200 hc         1 O06       0.046867
     38 H6          21.9630    40.3340    11.5470 hc         1 O06       0.046867
     39 H7          22.2050    38.5710    11.4380 hc         1 O06       0.046867
     40 H8          25.2320    39.3000     8.3820 hn         1 O06       0.207000
     41 H9          23.0330    39.0650     5.3990 ha         1 O06       0.149000
     42 H10         30.8460    39.4590     7.9910 ha         1 O06       0.146000
     43 H11         30.3200    39.6120     5.5430 ha         1 O06       0.134000
     44 H12         27.9200    39.6490     4.8280 ha         1 O06       0.156000
     45 H13         24.7630    41.2890    11.0840 hc         1 O06       0.046867
     46 H14         24.8850    41.2780     9.3190 hc         1 O06       0.046867
     47 H15         23.4290    41.9150    10.0980 hc         1 O06       0.046867
     48 H16         25.0570    38.9090    11.0440 ho         1 O06       0.450000
     49 H17         17.6370    39.5880     4.6530 hc         1 O06       0.072200
     50 H18         16.8810    39.4300     6.2250 hc         1 O06       0.072200
     51 H19         17.3170    36.9380     6.1790 hc         1 O06       0.048700
     52 H20         18.0170    37.0940     4.5810 hc         1 O06       0.048700
     53 H21         15.7530    39.1230     3.3850 hc         1 O06       0.043200
     54 H22         16.4970    37.7370     2.5590 hc         1 O06       0.043200
     55 H23         14.7390    37.8030     2.7900 hc         1 O06       0.043200
     56 H24         15.6630    35.2460     5.3680 hc         1 O06       0.043200
     57 H25         14.5850    35.6120     4.0070 hc         1 O06       0.043200
     58 H26         16.3160    35.3490     3.7220 hc         1 O06       0.043200
     59 H27         14.9320    37.2900     6.3300 ho         1 O06       0.442000
     60 C27         29.0650    39.3220    10.0910 c3         1 O06       0.255700
@<TRIPOS>BOND
     1     1     3 ar  
     2     1    10 ar  
     3     1    26 1   
     4     2    26 1   
     5     2    33 1   
     6     2    34 1   
     7     2    35 1   
     8     3     4 ar  
     9     3    25 1   
    10     4     5 ar  
    11     4    36 1   
    12     5     6 1   
    13     5    22 ar  
    14     6     7 1   
    15     6    23 1   
    16     6    24 1   
    17     7    37 1   
    18     7    38 1   
    19     7    39 1   
    20     8    25 2   
    21     8    26 1   
    22     8    27 1   
    23     9    20 1   
    24     9    22 1   
    25     9    40 1   
    26    10    22 ar  
    27    10    41 1   
    28    11    60 1   
    29    12    60 1   
    30    13    60 1   
    31    14    15 ar  
    32    14    16 ar  
    33    14    60 1   
    34    15    19 ar  
    35    16    17 ar  
    36    16    42 1   
    37    17    18 ar  
    38    17    43 1   
    39    18    19 ar  
    40    18    44 1   
    41    19    20 1   
    42    20    21 2   
    43    23    45 1   
    44    23    46 1   
    45    23    47 1   
    46    24    48 1   
    47    27    28 1   
    48    27    49 1   
    49    27    50 1   
    50    28    29 1   
    51    28    51 1   
    52    28    52 1   
    53    29    30 1   
    54    29    31 1   
    55    29    32 1   
    56    30    53 1   
    57    30    54 1   
    58    30    55 1   
    59    31    56 1   
    60    31    57 1   
    61    31    58 1   
    62    32    59 1   
@<TRIPOS>SUBSTRUCTURE
     1 O06         1 TEMP              0 ****  ****    0 ROOT
