@<TRIPOS>MOLECULE
O08
   63    66     1     0     0
SMALL
No Charge or Current Charge


@<TRIPOS>ATOM
      1 C1          21.6010     9.2190    47.5460 ca         1 O08       0.153100
      2 C2          21.7870     8.0840    48.3470 ca         1 O08      -0.147000
      3 C3          21.5660     6.7990    47.8250 ca         1 O08      -0.062000
      4 C4          21.1580     6.6280    46.4850 ca         1 O08      -0.119300
      5 C5          20.9270     5.2150    45.9400 c3         1 O08       0.172000
      6 C6          19.5990     4.6260    46.4470 c3         1 O08      -0.104100
      7 C8          24.1860     3.2630    46.3080 c5         1 O08       0.036700
      8 C10         26.2160     3.1390    47.6490 c5         1 O08       0.153300
      9 C11         26.6270     2.8370    46.1760 c5         1 O08       0.108000
     10 C16         27.2260    -0.3240    38.8570 ca         1 O08      -0.109000
     11 C24         20.9640     7.7790    45.6830 ca         1 O08       0.174000
     12 C25         21.1850     9.0620    46.2090 ca         1 O08      -0.194000
     13 O           21.8330    10.4560    48.1130 os         1 O08      -0.339100
     14 C           21.6710    11.6810    47.3770 c3         1 O08       0.146900
     15 N           22.0380     4.3330    46.2890 ns         1 O08      -0.503900
     16 C7          23.2330     4.2830    45.6040 c          1 O08       0.601100
     17 O1          23.4650     4.9600    44.6090 o          1 O08      -0.579100
     18 N1          25.3190     2.7670    45.4780 n          1 O08      -0.391800
     19 O2          25.9120     1.9480    48.3820 oh         1 O08      -0.652000
     20 C9          24.9540     4.0120    47.4430 c5         1 O08      -0.129400
     21 O3          24.0050     1.8940    43.8130 o          1 O08      -0.606100
     22 C13         26.3980     1.7370    43.4240 c3         1 O08       0.029000
     23 N2          26.0580     1.1450    42.1110 ns         1 O08      -0.474900
     24 C14         26.9730     0.7190    41.1690 c          1 O08       0.505600
     25 O4          28.1800     0.8110    41.3780 o          1 O08      -0.613100
     26 C15         26.3730     0.1390    39.8820 ca         1 O08       0.311500
     27 N3          25.0120     0.0840    39.7550 nb         1 O08      -0.653000
     28 C23         24.4700    -0.4250    38.6230 ca         1 O08       0.252000
     29 C18         25.2760    -0.9060    37.5590 ca         1 O08      -0.047000
     30 C17         26.6750    -0.8540    37.6800 ca         1 O08      -0.077000
     31 C22         23.0690    -0.4860    38.4840 ca         1 O08      -0.048000
     32 C21         22.4790    -1.0100    37.3180 ca         1 O08      -0.144000
     33 C20         23.2900    -1.4810    36.2770 ca         1 O08       0.182000
     34 F           22.7250    -1.9840    35.1580 f          1 O08      -0.174000
     35 C19         24.6870    -1.4310    36.3910 ca         1 O08      -0.147000
     36 H6          22.1040     8.2010    49.3800 ha         1 O08       0.128000
     37 H7          21.7140     5.9350    48.4690 ha         1 O08       0.111000
     38 H           20.8720     5.2400    44.8440 h1         1 O08       0.089700
     39 H10         18.7600     5.2680    46.1490 hc         1 O08       0.046700
     40 H8          19.4320     3.6290    46.0230 hc         1 O08       0.046700
     41 H9          19.5970     4.5440    47.5400 hc         1 O08       0.046700
     42 H1          23.6000     2.4190    46.6970 h1         1 O08       0.071700
     43 H2          27.0080     3.7000    48.1660 h1         1 O08       0.055700
     44 H15         27.1950     1.9000    46.1060 h1         1 O08       0.067200
     45 H16         27.2420     3.6470    45.7630 h1         1 O08       0.067200
     46 H25         21.0260     9.9200    45.5640 ha         1 O08       0.134000
     47 H4          21.9070    12.5420    48.0160 h1         1 O08       0.043700
     48 H3          22.3420    11.7070    46.5100 h1         1 O08       0.043700
     49 H5          20.6370    11.7920    47.0270 h1         1 O08       0.043700
     50 H11         21.9410     3.7300    47.0970 hn         1 O08       0.315500
     51 H14         25.6990     2.2240    49.3010 ho         1 O08       0.446000
     52 H13         25.2410     5.0230    47.1260 hc         1 O08       0.068200
     53 H12         24.3550     4.1250    48.3540 hc         1 O08       0.068200
     54 H18         26.9790     1.0120    44.0080 h1         1 O08       0.069200
     55 H17         27.0030     2.6400    43.2750 h1         1 O08       0.069200
     56 H19         25.0780     1.0330    41.8600 hn         1 O08       0.368500
     57 H21         27.3210    -1.2140    36.8830 ha         1 O08       0.126000
     58 H24         22.4370    -0.1210    39.2900 ha         1 O08       0.140000
     59 H23         21.3970    -1.0510    37.2240 ha         1 O08       0.137000
     60 H22         25.3050    -1.8000    35.5760 ha         1 O08       0.136000
     61 Cl          20.4240     7.6640    44.0070 cl         1 O08      -0.206000
     62 C12         25.1340     2.1230    44.2360 c          1 O08       0.605100
     63 H20         28.3040    -0.2710    38.9780 ha         1 O08       0.150000
@<TRIPOS>BOND
     1     1     2 ar  
     2     1    12 ar  
     3     1    13 1   
     4     2     3 ar  
     5     2    36 1   
     6     3     4 ar  
     7     3    37 1   
     8     4     5 1   
     9     4    11 ar  
    10     5     6 1   
    11     5    15 1   
    12     5    38 1   
    13     6    39 1   
    14     6    40 1   
    15     6    41 1   
    16     7    16 1   
    17     7    18 1   
    18     7    20 1   
    19     7    42 1   
    20     8     9 1   
    21     8    19 1   
    22     8    20 1   
    23     8    43 1   
    24     9    18 1   
    25     9    44 1   
    26     9    45 1   
    27    10    26 ar  
    28    10    30 ar  
    29    10    63 1   
    30    11    12 ar  
    31    11    61 1   
    32    12    46 1   
    33    13    14 1   
    34    14    47 1   
    35    14    48 1   
    36    14    49 1   
    37    15    16 1   
    38    15    50 1   
    39    16    17 2   
    40    18    62 1   
    41    19    51 1   
    42    20    52 1   
    43    20    53 1   
    44    21    62 2   
    45    22    23 1   
    46    22    54 1   
    47    22    55 1   
    48    22    62 1   
    49    23    24 1   
    50    23    56 1   
    51    24    25 2   
    52    24    26 1   
    53    26    27 ar  
    54    27    28 ar  
    55    28    29 ar  
    56    28    31 ar  
    57    29    30 ar  
    58    29    35 ar  
    59    30    57 1   
    60    31    32 ar  
    61    31    58 1   
    62    32    33 ar  
    63    32    59 1   
    64    33    34 1   
    65    33    35 ar  
    66    35    60 1   
@<TRIPOS>SUBSTRUCTURE
     1 O08         1 TEMP              0 ****  ****    0 ROOT
