@<TRIPOS>MOLECULE
O08
   63    66     1     0     0
SMALL
bcc


@<TRIPOS>ATOM
      1 C1          21.6350     9.0000    47.2320 ca         1 O08       0.153100
      2 C2          22.0160     7.8620    47.9440 ca         1 O08      -0.165000
      3 C3          21.8620     6.6120    47.3810 ca         1 O08      -0.080000
      4 C4          21.3340     6.4270    46.1030 ca         1 O08      -0.119300
      5 C5          21.1440     5.0390    45.5250 c3         1 O08       0.172000
      6 C6          19.7480     4.5100    45.8360 c3         1 O08      -0.104100
      7 C8          24.3210     3.1920    46.4280 c5         1 O08       0.036700
      8 C10         26.3810     3.1880    47.6630 c5         1 O08       0.130100
      9 C11         26.7190     2.9720    46.1980 c5         1 O08       0.108000
     10 C16         27.0530    -0.2440    39.1550 ca         1 O08      -0.192300
     11 C24         20.9530     7.5770    45.4270 ca         1 O08       0.082400
     12 C25         21.0950     8.8530    45.9600 ca         1 O08      -0.212000
     13 O           21.8220    10.1830    47.8400 os         1 O08      -0.315900
     14 C           21.5000    11.3660    47.1340 c3         1 O08       0.123700
     15 N           22.1290     4.1070    46.0320 ns         1 O08      -0.570900
     16 C7          23.4200     4.1580    45.6720 c          1 O08       0.668100
     17 O1          23.8620     4.9600    44.8680 o          1 O08      -0.579100
     18 N1          25.4140     2.7190    45.6010 n          1 O08      -0.458800
     19 O2          26.2520     1.9190    48.2620 oh         1 O08      -0.589800
     20 C9          25.0440     3.9160    47.5720 c5         1 O08      -0.129400
     21 O3          24.0360     1.8940    44.0350 o          1 O08      -0.606100
     22 C13         26.3920     1.6420    43.6650 c3         1 O08       0.029000
     23 N2          25.9800     1.1430    42.3860 ns         1 O08      -0.541900
     24 C14         26.8480     0.7070    41.4730 c          1 O08       0.572600
     25 O4          28.0610     0.6850    41.6330 o          1 O08      -0.613100
     26 C15         26.2220     0.2330    40.1900 ca         1 O08       0.376800
     27 N3          24.9200     0.2960    40.0970 nb         1 O08      -0.653000
     28 C23         24.3240    -0.1100    38.9580 ca         1 O08       0.382600
     29 C18         25.0670    -0.6050    37.8570 ca         1 O08      -0.112300
     30 C17         26.4710    -0.6620    37.9920 ca         1 O08      -0.095000
     31 C22         22.9140    -0.0350    38.8620 ca         1 O08      -0.131300
     32 C21         22.2770    -0.4320    37.7220 ca         1 O08      -0.162000
     33 C20         23.0390    -0.9190    36.6450 ca         1 O08       0.146900
     34 F           22.3820    -1.2990    35.5420 f          1 O08      -0.138900
     35 C19         24.3970    -1.0140    36.6850 ca         1 O08      -0.165000
     36 H6          22.4370     7.9660    48.9360 ha         1 O08       0.146000
     37 H7          22.1690     5.7450    47.9530 ha         1 O08       0.129000
     38 H           21.2620     5.0900    44.4410 h1         1 O08       0.089700
     39 H10         18.9920     5.1810    45.4320 hc         1 O08       0.046700
     40 H8          19.5970     3.5260    45.3910 hc         1 O08       0.046700
     41 H9          19.5890     4.4340    46.9130 hc         1 O08       0.046700
     42 H1          23.7410     2.3470    46.8110 h1         1 O08       0.071700
     43 H2          27.1430     3.7960    48.1620 h1         1 O08       0.055700
     44 H15         27.4030     2.1350    46.0580 h1         1 O08       0.067200
     45 H16         27.1810     3.8680    45.7770 h1         1 O08       0.067200
     46 H25         20.7800     9.7060    45.3740 ha         1 O08       0.152000
     47 H4          21.7560    12.1950    47.7880 h1         1 O08       0.043700
     48 H3          22.0740    11.4550    46.2080 h1         1 O08       0.043700
     49 H5          20.4340    11.4220    46.8950 h1         1 O08       0.043700
     50 H11         21.8290     3.3990    46.6830 hn         1 O08       0.315500
     51 H14         25.9330     2.0400    49.1630 ho         1 O08       0.407000
     52 H13         25.2260     4.9600    47.3080 hc         1 O08       0.068200
     53 H12         24.4750     3.9000    48.5020 hc         1 O08       0.068200
     54 H18         26.9150     0.8700    44.2400 h1         1 O08       0.069200
     55 H17         27.0960     2.4730    43.5510 h1         1 O08       0.069200
     56 H19         24.9920     1.1100    42.1730 hn         1 O08       0.368500
     57 H21         27.0730    -1.0340    37.1730 ha         1 O08       0.144000
     58 H24         22.3550     0.3430    39.7070 ha         1 O08       0.158000
     59 H23         21.1990    -0.3780    37.6350 ha         1 O08       0.155000
     60 H22         24.9540    -1.3950    35.8390 ha         1 O08       0.154000
     61 CL          20.2530     7.4630    43.8380 cl         1 O08      -0.114400
     62 C12         25.1720     2.0960    44.4440 c          1 O08       0.672100
     63 H20         28.1250    -0.2740    39.2860 ha         1 O08       0.168000
@<TRIPOS>BOND
     1     1     2 ar  
     2     1    12 ar  
     3     1    13 1   
     4     2     3 ar  
     5     2    36 1   
     6     3     4 ar  
     7     3    37 1   
     8     4     5 1   
     9     4    11 ar  
    10     5     6 1   
    11     5    15 1   
    12     5    38 1   
    13     6    39 1   
    14     6    40 1   
    15     6    41 1   
    16     7    16 1   
    17     7    18 1   
    18     7    20 1   
    19     7    42 1   
    20     8     9 1   
    21     8    19 1   
    22     8    20 1   
    23     8    43 1   
    24     9    18 1   
    25     9    44 1   
    26     9    45 1   
    27    10    26 ar  
    28    10    30 ar  
    29    10    63 1   
    30    11    12 ar  
    31    11    61 1   
    32    12    46 1   
    33    13    14 1   
    34    14    47 1   
    35    14    48 1   
    36    14    49 1   
    37    15    16 1   
    38    15    50 1   
    39    16    17 2   
    40    18    62 1   
    41    19    51 1   
    42    20    52 1   
    43    20    53 1   
    44    21    62 2   
    45    22    23 1   
    46    22    54 1   
    47    22    55 1   
    48    22    62 1   
    49    23    24 1   
    50    23    56 1   
    51    24    25 2   
    52    24    26 1   
    53    26    27 ar  
    54    27    28 ar  
    55    28    29 ar  
    56    28    31 ar  
    57    29    30 ar  
    58    29    35 ar  
    59    30    57 1   
    60    31    32 ar  
    61    31    58 1   
    62    32    33 ar  
    63    32    59 1   
    64    33    34 1   
    65    33    35 ar  
    66    35    60 1   
@<TRIPOS>SUBSTRUCTURE
     1 O08         1 TEMP              0 ****  ****    0 ROOT
