@<TRIPOS>MOLECULE
O09
   26    26     1     0     0
SMALL
bcc


@<TRIPOS>ATOM
      1 C1           4.8970     0.3510     0.1240 ce         1 O09       0.667800
      2 N1           5.2610     1.6310    -0.1820 nv         1 O09      -0.966800
      3 O1          -2.8840    -0.4210    -0.0170 os         1 O09      -0.137300
      4 C2           3.4340     0.0790     0.0840 ca         1 O09      -0.164900
      5 N2          -1.6240     0.0730     0.0460 n2         1 O09      -0.411200
      6 O2          -6.1470     0.9510     0.0360 o          1 O09      -0.822300
      7 C3           2.9840    -1.2270    -0.0880 ca         1 O09      -0.102500
      8 N3           5.6840    -0.5920     0.4770 n2         1 O09      -0.837100
      9 O3          -5.4120    -1.1590    -0.0220 o          1 O09      -0.822300
     10 C4           1.6280    -1.5050    -0.1300 ca         1 O09      -0.127500
     11 C5           0.6850    -0.4870     0.0090 ca         1 O09      -0.080900
     12 C6          -0.7350    -0.8290    -0.0460 ce         1 O09       0.348800
     13 C7          -3.8340     0.6330     0.0400 c3         1 O09      -0.018600
     14 C8          -5.2640     0.0720     0.0140 c          1 O09       0.936600
     15 C9           1.1360     0.8210     0.1950 ca         1 O09      -0.127500
     16 C10          2.4900     1.0980     0.2290 ca         1 O09      -0.102500
     17 HN1          6.2440     1.8160    -0.3040 hn         1 O09       0.401800
     18 HN1A         4.6720     2.1610    -0.8040 hn         1 O09       0.401800
     19 H3           3.7030    -2.0260    -0.1980 ha         1 O09       0.135500
     20 HN3          6.6550    -0.2950     0.4340 hn         1 O09       0.358400
     21 H4           1.2990    -2.5260    -0.2770 ha         1 O09       0.144000
     22 H6          -0.9930    -1.8810    -0.1720 h4         1 O09       0.004800
     23 H7          -3.6930     1.2220     0.9540 h1         1 O09       0.020700
     24 H7A         -3.6960     1.3150    -0.8070 h1         1 O09       0.020700
     25 H9           0.4240     1.6260     0.3160 ha         1 O09       0.144000
     26 H10          2.8060     2.1210     0.3910 ha         1 O09       0.135500
@<TRIPOS>BOND
     1     1     2 1   
     2     1     4 1   
     3     1     8 2   
     4     2    17 1   
     5     2    18 1   
     6     3     5 1   
     7     3    13 1   
     8     4     7 ar  
     9     4    16 ar  
    10     5    12 2   
    11     6    14 1   
    12     7    10 ar  
    13     7    19 1   
    14     8    20 1   
    15     9    14 1   
    16    10    11 ar  
    17    10    21 1   
    18    11    12 1   
    19    11    15 ar  
    20    12    22 1   
    21    13    14 1   
    22    13    23 1   
    23    13    24 1   
    24    15    16 ar  
    25    15    25 1   
    26    16    26 1   
@<TRIPOS>SUBSTRUCTURE
     1 O09         1 TEMP              0 ****  ****    0 ROOT
