@<TRIPOS>MOLECULE
O09
   26    26     1     0     0
SMALL
No Charge or Current Charge


@<TRIPOS>ATOM
      1 C1           4.9750     0.3580     0.1500 ce         1 O09       0.667800
      2 N1           5.3980     1.6040    -0.1490 nv         1 O09      -1.077200
      3 O1          -2.9780    -0.4570    -0.0430 os         1 O09      -0.259000
      4 C2           3.5030     0.0710     0.0690 ca         1 O09      -0.164900
      5 N2          -1.6700     0.0590     0.0300 n2         1 O09      -0.312700
      6 O2          -6.3000     0.9730     0.0970 o          1 O09      -0.717000
      7 C3           3.0400    -1.2570    -0.0690 ca         1 O09      -0.084500
      8 N3           5.8490    -0.5320     0.3840 n2         1 O09      -0.837100
      9 O3          -5.6570    -1.0670    -0.1410 o          1 O09      -0.717000
     10 C4           1.6640    -1.5410    -0.1170 ca         1 O09      -0.109500
     11 C5           0.7120    -0.5100    -0.0150 ca         1 O09      -0.080900
     12 C6          -0.7460    -0.8470    -0.0690 ce         1 O09       0.348800
     13 C7          -3.9410     0.6160     0.0760 c3         1 O09       0.004600
     14 C8          -5.4190     0.1270     0.0040 c          1 O09       0.726000
     15 C9           1.1660     0.8170     0.1450 ca         1 O09      -0.109500
     16 C10          2.5420     1.1030     0.1930 ca         1 O09      -0.084500
     17 HN1          6.3420     1.6710    -0.5090 hn         1 O09       0.457000
     18 HN1A         4.7160     2.1890    -0.6170 hn         1 O09       0.457000
     19 H3           3.7480    -2.0790    -0.1480 ha         1 O09       0.117500
     20 HN3          6.7380    -0.0590     0.5760 hn         1 O09       0.358400
     21 H4           1.3380    -2.5730    -0.2330 ha         1 O09       0.126000
     22 H6          -0.9980    -1.9020    -0.1960 h4         1 O09       0.004800
     23 H7          -3.8120     1.1380     1.0340 h1         1 O09       0.020700
     24 H7A         -3.7950     1.3480    -0.7300 h1         1 O09       0.020700
     25 H9           0.4550     1.6350     0.2400 ha         1 O09       0.126000
     26 H10          2.8510     2.1360     0.3400 ha         1 O09       0.117500
@<TRIPOS>BOND
     1     1     2 1   
     2     1     4 1   
     3     1     8 2   
     4     2    17 1   
     5     2    18 1   
     6     3     5 1   
     7     3    13 1   
     8     4     7 ar  
     9     4    16 ar  
    10     5    12 2   
    11     6    14 1   
    12     7    10 ar  
    13     7    19 1   
    14     8    20 1   
    15     9    14 1   
    16    10    11 ar  
    17    10    21 1   
    18    11    12 1   
    19    11    15 ar  
    20    12    22 1   
    21    13    14 1   
    22    13    23 1   
    23    13    24 1   
    24    15    16 ar  
    25    15    25 1   
    26    16    26 1   
@<TRIPOS>SUBSTRUCTURE
     1 O09         1 TEMP              0 ****  ****    0 ROOT
