@<TRIPOS>MOLECULE
O0A
   60    64     1     0     0
SMALL
No Charge or Current Charge


@<TRIPOS>ATOM
      1 C4          -0.9540     2.7060    -1.1250 ca         1 O0A      -0.099500
      2 C14         -6.7250    -0.4130     0.7400 ca         1 O0A      -0.091000
      3 C5          -0.1860     1.7130    -0.4850 ca         1 O0A      -0.092300
      4 C6           0.0450     1.8100     0.9020 ca         1 O0A      -0.099500
      5 C11         -4.1410    -1.1340    -0.1700 ca         1 O0A      -0.144600
      6 C7          -0.4870     2.8830     1.6370 ca         1 O0A      -0.112500
      7 C8           0.3690     0.5240    -1.2860 c6         1 O0A       0.082900
      8 C9          -0.3340    -0.8250    -0.8910 c6         1 O0A       0.033700
      9 C12         -4.3840     0.1540     0.3700 ca         1 O0A      -0.090000
     10 C13         -5.6680     0.5070     0.8190 ca         1 O0A      -0.118000
     11 N1          -1.7700    -0.6210    -0.5590 ns         1 O0A      -0.486900
     12 N2           1.8030    -1.5230     0.2490 ns         1 O0A      -0.400100
     13 C3          -1.4850     3.7780    -0.3880 ca         1 O0A      -0.112500
     14 N3           4.0960     0.9200    -1.2730 nc         1 O0A      -0.510800
     15 C15         -6.5030    -1.6960     0.2100 ca         1 O0A      -0.083300
     16 C16         -7.6470    -2.6950     0.1180 c3         1 O0A      -0.047800
     17 C17         -5.2180    -2.0490    -0.2430 ca         1 O0A      -0.055000
     18 C18          0.4400    -1.6990     0.1650 c          1 O0A       0.554000
     19 C19          2.4830    -0.5280    -0.4110 cc         1 O0A       0.030600
     20 C2          -1.2540     3.8730     0.9970 ca         1 O0A      -0.070300
     21 C20          1.8670     0.4230    -1.1390 cd         1 O0A      -0.259300
     22 C21          2.8760     1.2840    -1.6450 cd         1 O0A       0.310300
     23 C22          2.6600     2.5080    -2.4900 c3         1 O0A      -0.124400
     24 C23          4.8550    -0.8820     0.1420 ca         1 O0A       0.016800
     25 C24          5.9620    -1.3690    -0.5830 ca         1 O0A      -0.109000
     26 C25          6.9950    -2.0580     0.0760 ca         1 O0A      -0.097000
     27 C26          6.9290    -2.2630     1.4650 ca         1 O0A      -0.106000
     28 C27          5.8310    -1.7760     2.1950 ca         1 O0A      -0.097000
     29 C28          4.7980    -1.0870     1.5360 ca         1 O0A      -0.109000
     30 N4           3.8260    -0.2020    -0.5150 na         1 O0A       0.200000
     31 O1          -2.5650    -2.6580    -1.1590 o          1 O0A      -0.594100
     32 O2          -0.1040    -2.5610     0.8410 o          1 O0A      -0.514000
     33 H1          -1.1470     2.6490    -2.1940 ha         1 O0A       0.115000
     34 H3           0.6350     1.0530     1.4130 ha         1 O0A       0.115000
     35 H4          -0.3030     2.9420     2.7080 ha         1 O0A       0.112500
     36 H5           0.1420     0.6990    -2.3470 hc         1 O0A       0.076700
     37 H6          -0.2920    -1.4550    -1.7910 h1         1 O0A       0.110700
     38 H7          -3.5940     0.8970     0.4490 ha         1 O0A       0.114000
     39 H8          -5.8440     1.4980     1.2310 ha         1 O0A       0.114000
     40 H9          -2.0320     0.2670    -0.1530 hn         1 O0A       0.327500
     41 H10          2.2990    -2.1680     0.8530 hn         1 O0A       0.336500
     42 H11         -2.0790     4.5350    -0.8940 ha         1 O0A       0.112500
     43 H15         -8.1250    -2.6520    -0.8680 hc         1 O0A       0.044700
     44 H16         -7.2940    -3.7210     0.2760 hc         1 O0A       0.044700
     45 H17         -8.4180    -2.4950     0.8730 hc         1 O0A       0.044700
     46 H18         -5.0570    -3.0430    -0.6550 ha         1 O0A       0.135000
     47 H20          2.0650     2.2660    -3.3780 hc         1 O0A       0.052033
     48 H21          2.1250     3.2780    -1.9250 hc         1 O0A       0.052033
     49 H22          3.6100     2.9380    -2.8300 hc         1 O0A       0.052033
     50 H23          6.0180    -1.2150    -1.6590 ha         1 O0A       0.130000
     51 H24          7.8460    -2.4330    -0.4890 ha         1 O0A       0.120500
     52 H25          7.7290    -2.7960     1.9750 ha         1 O0A       0.120000
     53 H26          5.7830    -1.9310     3.2710 ha         1 O0A       0.120500
     54 H27          3.9570    -0.7040     2.1120 ha         1 O0A       0.130000
     55 C10         -2.7730    -1.5570    -0.6680 c          1 O0A       0.622700
     56 C1          -1.8350     5.0300     1.7950 c3         1 O0A      -0.048800
     57 H2          -7.7140    -0.1270     1.0890 ha         1 O0A       0.112000
     58 H12         -2.8340     4.7810     2.1720 hc         1 O0A       0.043700
     59 H13         -1.2030     5.2790     2.6560 hc         1 O0A       0.043700
     60 H14         -1.9240     5.9340     1.1810 hc         1 O0A       0.043700
@<TRIPOS>BOND
     1     1     3 ar  
     2     1    13 ar  
     3     1    33 1   
     4     2    10 ar  
     5     2    15 ar  
     6     2    57 1   
     7     3     4 ar  
     8     3     7 1   
     9     4     6 ar  
    10     4    34 1   
    11     5     9 ar  
    12     5    17 ar  
    13     5    55 1   
    14     6    20 ar  
    15     6    35 1   
    16     7     8 1   
    17     7    21 1   
    18     7    36 1   
    19     8    11 1   
    20     8    18 1   
    21     8    37 1   
    22     9    10 ar  
    23     9    38 1   
    24    10    39 1   
    25    11    40 1   
    26    11    55 1   
    27    12    18 1   
    28    12    19 1   
    29    12    41 1   
    30    13    20 ar  
    31    13    42 1   
    32    14    22 2   
    33    14    30 1   
    34    15    16 1   
    35    15    17 ar  
    36    16    43 1   
    37    16    44 1   
    38    16    45 1   
    39    17    46 1   
    40    18    32 2   
    41    19    21 2   
    42    19    30 1   
    43    20    56 1   
    44    21    22 1   
    45    22    23 1   
    46    23    47 1   
    47    23    48 1   
    48    23    49 1   
    49    24    25 ar  
    50    24    29 ar  
    51    24    30 1   
    52    25    26 ar  
    53    25    50 1   
    54    26    27 ar  
    55    26    51 1   
    56    27    28 ar  
    57    27    52 1   
    58    28    29 ar  
    59    28    53 1   
    60    29    54 1   
    61    31    55 2   
    62    56    58 1   
    63    56    59 1   
    64    56    60 1   
@<TRIPOS>SUBSTRUCTURE
     1 O0A         1 TEMP              0 ****  ****    0 ROOT
