@<TRIPOS>MOLECULE
O0A
   60    64     1     0     0
SMALL
bcc


@<TRIPOS>ATOM
      1 C4          -1.2100     2.7840    -0.6870 ca         1 O0A      -0.117500
      2 C14         -6.7570    -0.6630     0.1370 ca         1 O0A      -0.109000
      3 C5          -0.1800     1.9640    -0.2370 ca         1 O0A      -0.092300
      4 C6           0.3740     2.2340     1.0120 ca         1 O0A      -0.117500
      5 C11         -4.0790    -1.0830    -0.4650 ca         1 O0A      -0.144600
      6 C7          -0.0960     3.2860     1.7840 ca         1 O0A      -0.130500
      7 C8           0.2720     0.7900    -1.0790 c6         1 O0A       0.082900
      8 C9          -0.3580    -0.5480    -0.6140 c6         1 O0A       0.033700
      9 C12         -4.5660     0.2140    -0.3260 ca         1 O0A      -0.108000
     10 C13         -5.9060     0.4170    -0.0270 ca         1 O0A      -0.136000
     11 N1          -1.7670    -0.4270    -0.4120 ns         1 O0A      -0.553900
     12 N2           1.6700    -1.1260     0.6450 ns         1 O0A      -0.467100
     13 C3          -1.6760     3.8400     0.0850 ca         1 O0A      -0.130500
     14 N3           3.9660     0.6200    -1.4340 nc         1 O0A      -0.510800
     15 C15         -6.2910    -1.9710    -0.0070 ca         1 O0A      -0.083300
     16 C16         -7.2220    -3.1350     0.1600 c3         1 O0A      -0.047800
     17 C17         -4.9500    -2.1610    -0.3180 ca         1 O0A      -0.073000
     18 C18          0.3060    -1.1830     0.6190 c          1 O0A       0.696500
     19 C19          2.3430    -0.3150    -0.2420 cc         1 O0A       0.081300
     20 C2          -1.1300     4.1070     1.3360 ca         1 O0A      -0.070300
     21 C20          1.7470     0.5840    -1.0810 cd         1 O0A      -0.324600
     22 C21          2.8170     1.1430    -1.8090 cd         1 O0A       0.375600
     23 C22          2.7360     2.1880    -2.8650 c3         1 O0A      -0.124400
     24 C23          4.6900    -1.0470     0.1330 ca         1 O0A       0.016800
     25 C24          5.6230    -1.6850    -0.6760 ca         1 O0A      -0.127000
     26 C25          6.6230    -2.4460    -0.0900 ca         1 O0A      -0.115000
     27 C26          6.6840    -2.5850     1.2910 ca         1 O0A      -0.124000
     28 C27          5.7490    -1.9430     2.0900 ca         1 O0A      -0.115000
     29 C28          4.7570    -1.1600     1.5160 ca         1 O0A      -0.127000
     30 N4           3.6720    -0.2760    -0.4660 na         1 O0A       0.149300
     31 O1          -2.3240    -2.3930    -1.3800 o          1 O0A      -0.594100
     32 O2          -0.3290    -1.7560     1.4750 o          1 O0A      -0.589500
     33 H1          -1.6520     2.6000    -1.6600 ha         1 O0A       0.133000
     34 H3           1.1930     1.6350     1.3920 ha         1 O0A       0.133000
     35 H4           0.3550     3.4750     2.7510 ha         1 O0A       0.130500
     36 H5          -0.0860     0.9480    -2.0990 hc         1 O0A       0.076700
     37 H6          -0.1920    -1.2680    -1.4230 h1         1 O0A       0.110700
     38 H7          -3.9260     1.0760    -0.4750 ha         1 O0A       0.132000
     39 H8          -6.2860     1.4250     0.0740 ha         1 O0A       0.132000
     40 H9          -2.0770     0.2900     0.2250 hn         1 O0A       0.327500
     41 H10          2.1490    -1.5980     1.3990 hn         1 O0A       0.336500
     42 H11         -2.4730     4.4660    -0.2990 ha         1 O0A       0.130500
     43 H15         -7.9850    -3.1420    -0.6210 hc         1 O0A       0.044700
     44 H16         -6.6900    -4.0840     0.1120 hc         1 O0A       0.044700
     45 H17         -7.7430    -3.0920     1.1170 hc         1 O0A       0.044700
     46 H18         -4.5720    -3.1680    -0.4410 ha         1 O0A       0.153000
     47 H20          2.1310     1.8470    -3.7070 hc         1 O0A       0.052033
     48 H21          2.2710     3.0980    -2.4830 hc         1 O0A       0.052033
     49 H22          3.7250     2.4420    -3.2400 hc         1 O0A       0.052033
     50 H23          5.5640    -1.5870    -1.7510 ha         1 O0A       0.148000
     51 H24          7.3520    -2.9410    -0.7180 ha         1 O0A       0.138500
     52 H25          7.4620    -3.1860     1.7420 ha         1 O0A       0.138000
     53 H26          5.7990    -2.0340     3.1670 ha         1 O0A       0.138500
     54 H27          4.0670    -0.6180     2.1510 ha         1 O0A       0.148000
     55 C10         -2.6520    -1.3730    -0.7940 c          1 O0A       0.689700
     56 C1          -1.6410     5.2320     2.1870 c3         1 O0A      -0.048800
     57 H2          -7.8000    -0.4900     0.3750 ha         1 O0A       0.130000
     58 H12         -2.2750     4.8560     2.9930 hc         1 O0A       0.043700
     59 H13         -0.8230     5.7820     2.6540 hc         1 O0A       0.043700
     60 H14         -2.2330     5.9380     1.6060 hc         1 O0A       0.043700
@<TRIPOS>BOND
     1     1     3 ar  
     2     1    13 ar  
     3     1    33 1   
     4     2    10 ar  
     5     2    15 ar  
     6     2    57 1   
     7     3     4 ar  
     8     3     7 1   
     9     4     6 ar  
    10     4    34 1   
    11     5     9 ar  
    12     5    17 ar  
    13     5    55 1   
    14     6    20 ar  
    15     6    35 1   
    16     7     8 1   
    17     7    21 1   
    18     7    36 1   
    19     8    11 1   
    20     8    18 1   
    21     8    37 1   
    22     9    10 ar  
    23     9    38 1   
    24    10    39 1   
    25    11    40 1   
    26    11    55 1   
    27    12    18 1   
    28    12    19 1   
    29    12    41 1   
    30    13    20 ar  
    31    13    42 1   
    32    14    22 2   
    33    14    30 1   
    34    15    16 1   
    35    15    17 ar  
    36    16    43 1   
    37    16    44 1   
    38    16    45 1   
    39    17    46 1   
    40    18    32 2   
    41    19    21 2   
    42    19    30 1   
    43    20    56 1   
    44    21    22 1   
    45    22    23 1   
    46    23    47 1   
    47    23    48 1   
    48    23    49 1   
    49    24    25 ar  
    50    24    29 ar  
    51    24    30 1   
    52    25    26 ar  
    53    25    50 1   
    54    26    27 ar  
    55    26    51 1   
    56    27    28 ar  
    57    27    52 1   
    58    28    29 ar  
    59    28    53 1   
    60    29    54 1   
    61    31    55 2   
    62    56    58 1   
    63    56    59 1   
    64    56    60 1   
@<TRIPOS>SUBSTRUCTURE
     1 O0A         1 TEMP              0 ****  ****    0 ROOT
