@<TRIPOS>MOLECULE
O0B
   21    20     1     0     0
SMALL
abcg2


@<TRIPOS>ATOM
      1 C4         -17.5590    -6.4520   -12.8680 c3         1 O0B       0.302000
      2 C5         -15.1400    -4.9600   -11.3040 c3         1 O0B       0.055500
      3 C6         -13.7850    -4.8450   -10.6420 c          1 O0B       0.527900
      4 N1         -15.5710    -3.6320   -11.7070 n8         1 O0B      -1.008200
      5 C3         -16.2750    -5.8910   -13.4150 c3         1 O0B      -0.135400
      6 C2         -15.0370    -5.9020   -12.5110 c3         1 O0B      -0.038700
      7 F1         -18.5470    -6.3590   -13.7770 f          1 O0B      -0.119667
      8 F2         -17.9980    -5.8150   -11.7710 f          1 O0B      -0.119667
      9 F3         -17.4770    -7.7520   -12.5400 f          1 O0B      -0.119667
     10 H7         -15.8440    -5.3520   -10.5680 h1         1 O0B       0.099700
     11 H11        -12.9990    -4.4500   -11.3180 h4         1 O0B      -0.024800
     12 H10        -15.6820    -3.0290   -10.9030 hn         1 O0B       0.409000
     13 H8         -14.8880    -3.1960   -12.3170 hn         1 O0B       0.409000
     14 H6         -16.0400    -6.4550   -14.3200 hc         1 O0B       0.083200
     15 H5         -16.4800    -4.8660   -13.7290 hc         1 O0B       0.083200
     16 H4         -14.2490    -5.4930   -13.1560 hc         1 O0B       0.047700
     17 O1         -13.5460    -5.0780    -9.4830 o          1 O0B      -0.493100
     18 C1         -14.5830    -7.2950   -12.0800 c3         1 O0B      -0.099100
     19 H3         -13.5560    -7.2710   -11.7130 hc         1 O0B       0.046700
     20 H1         -15.2000    -7.7040   -11.2800 hc         1 O0B       0.046700
     21 H2         -14.6060    -7.9930   -12.9160 hc         1 O0B       0.046700
@<TRIPOS>BOND
     1     1     5 1   
     2     1     7 1   
     3     1     8 1   
     4     1     9 1   
     5     2     3 1   
     6     2     4 1   
     7     2     6 1   
     8     2    10 1   
     9     3    11 1   
    10     3    17 2   
    11     4    12 1   
    12     4    13 1   
    13     5     6 1   
    14     5    14 1   
    15     5    15 1   
    16     6    16 1   
    17     6    18 1   
    18    18    19 1   
    19    18    20 1   
    20    18    21 1   
@<TRIPOS>SUBSTRUCTURE
     1 O0B         1 TEMP              0 ****  ****    0 ROOT
