@<TRIPOS>MOLECULE
O0B
   21    20     1     0     0
SMALL
No Charge or Current Charge


@<TRIPOS>ATOM
      1 C4         -17.6210    -6.5220   -12.8130 c3         1 O0B       0.302000
      2 C5         -15.1060    -4.8900   -11.3350 c3         1 O0B       0.055500
      3 C6         -13.7840    -4.9080   -10.4980 c          1 O0B       0.527900
      4 N1         -15.5430    -3.5100   -11.7620 n8         1 O0B      -1.008200
      5 C3         -16.3300    -5.9220   -13.4360 c3         1 O0B      -0.135400
      6 C2         -15.0280    -5.8600   -12.5630 c3         1 O0B      -0.038700
      7 F1         -18.6370    -6.4500   -13.7020 f          1 O0B      -0.119667
      8 F2         -18.0100    -5.8570   -11.7030 f          1 O0B      -0.119667
      9 F3         -17.4640    -7.8250   -12.4880 f          1 O0B      -0.119667
     10 H7         -15.8670    -5.2850   -10.6480 h1         1 O0B       0.099700
     11 H11        -12.8420    -4.8590   -11.0880 h4         1 O0B      -0.024800
     12 H10        -15.6160    -2.8960   -10.9390 hn         1 O0B       0.409000
     13 H8         -14.8080    -3.0660   -12.3280 hn         1 O0B       0.409000
     14 H6         -16.1050    -6.4970   -14.3430 hc         1 O0B       0.083200
     15 H5         -16.5680    -4.9130   -13.7930 hc         1 O0B       0.083200
     16 H4         -14.2540    -5.4520   -13.2260 hc         1 O0B       0.047700
     17 O1         -13.7570    -4.8970    -9.2710 o          1 O0B      -0.493100
     18 C1         -14.5280    -7.2760   -12.1680 c3         1 O0B      -0.099100
     19 H3         -13.4850    -7.2490   -11.8300 hc         1 O0B       0.046700
     20 H1         -15.1340    -7.6990   -11.3580 hc         1 O0B       0.046700
     21 H2         -14.5740    -7.9580   -13.0250 hc         1 O0B       0.046700
@<TRIPOS>BOND
     1     1     5 1   
     2     1     7 1   
     3     1     8 1   
     4     1     9 1   
     5     2     3 1   
     6     2     4 1   
     7     2     6 1   
     8     2    10 1   
     9     3    11 1   
    10     3    17 2   
    11     4    12 1   
    12     4    13 1   
    13     5     6 1   
    14     5    14 1   
    15     5    15 1   
    16     6    16 1   
    17     6    18 1   
    18    18    19 1   
    19    18    20 1   
    20    18    21 1   
@<TRIPOS>SUBSTRUCTURE
     1 O0B         1 TEMP              0 ****  ****    0 ROOT
