@<TRIPOS>MOLECULE
O0C
   33    35     1     0     0
SMALL
abcg2


@<TRIPOS>ATOM
      1 N1           7.3780     1.9310    17.9960 nb         1 O0C      -0.643000
      2 C4          11.0370    -0.2290    22.6880 ca         1 O0C      -0.079300
      3 C5           9.7080     0.3580    23.1040 c3         1 O0C      -0.107100
      4 C6           9.0860     1.1020    21.9300 c          1 O0C       0.603100
      5 C7           7.3880     0.8450    20.1510 ca         1 O0C      -0.077000
      6 C8           8.0070     1.5290    19.1280 ca         1 O0C       0.334900
      7 C10          5.3620     0.9430    18.8280 ca         1 O0C      -0.148000
      8 C13          5.2180    -0.1350    20.9850 ca         1 O0C      -0.159000
      9 C15         11.0740    -1.4490    22.0130 ca         1 O0C      -0.099000
     10 O            9.4890     2.2010    21.5770 o          1 O0C      -0.567100
     11 C3          12.2270     0.4550    22.9280 ca         1 O0C      -0.085000
     12 C2          13.4410    -0.0730    22.5020 ca         1 O0C      -0.099000
     13 C1          13.4860    -1.2880    21.8260 ca         1 O0C      -0.094000
     14 C           12.2930    -1.9580    21.5910 ca         1 O0C       0.125000
     15 CL          12.3260    -3.4900    20.7390 cl         1 O0C      -0.210000
     16 N            8.0830     0.4260    21.2970 ns         1 O0C      -0.153000
     17 C14          6.0060     0.5350    20.0230 ca         1 O0C      -0.005000
     18 C12          3.8940    -0.3670    20.7140 ca         1 O0C       0.340900
     19 N2           3.2730     0.0080    19.5630 nb         1 O0C      -0.663000
     20 C11          3.9900     0.6410    18.6640 ca         1 O0C       0.380900
     21 C9           6.1040     1.6430    17.8520 ca         1 O0C       0.359900
     22 H1           9.8520     1.0830    23.9040 hc         1 O0C       0.072200
     23 H2           9.0430    -0.4280    23.4630 hc         1 O0C       0.072200
     24 H3           9.0570     1.7720    19.2020 h4         1 O0C       0.046100
     25 H4           5.6310    -0.4560    21.9300 ha         1 O0C       0.119000
     26 H5          10.1610    -1.9960    21.8170 ha         1 O0C       0.124000
     27 H6          12.2030     1.4010    23.4520 ha         1 O0C       0.126000
     28 H7          14.3620     0.4610    22.6970 ha         1 O0C       0.123000
     29 H8          14.4250    -1.7060    21.4920 ha         1 O0C       0.133000
     30 H9           7.7870    -0.4410    21.7170 hn         1 O0C       0.154000
     31 H10          3.2710    -0.8750    21.4410 h4         1 O0C       0.022100
     32 H11          3.4920     0.9460    17.7480 h4         1 O0C       0.026100
     33 H12          5.6150     1.9610    16.9370 h4         1 O0C       0.027100
@<TRIPOS>BOND
     1     1     6 ar  
     2     1    21 ar  
     3     2     3 1   
     4     2     9 ar  
     5     2    11 ar  
     6     3     4 1   
     7     3    22 1   
     8     3    23 1   
     9     4    10 2   
    10     4    16 1   
    11     5     6 ar  
    12     5    16 1   
    13     5    17 ar  
    14     6    24 1   
    15     7    17 ar  
    16     7    20 ar  
    17     7    21 ar  
    18     8    17 ar  
    19     8    18 ar  
    20     8    25 1   
    21     9    14 ar  
    22     9    26 1   
    23    11    12 ar  
    24    11    27 1   
    25    12    13 ar  
    26    12    28 1   
    27    13    14 ar  
    28    13    29 1   
    29    14    15 1   
    30    16    30 1   
    31    18    19 ar  
    32    18    31 1   
    33    19    20 ar  
    34    20    32 1   
    35    21    33 1   
@<TRIPOS>SUBSTRUCTURE
     1 O0C         1 TEMP              0 ****  ****    0 ROOT
