@<TRIPOS>MOLECULE
O0C
   33    35     1     0     0
SMALL
No Charge or Current Charge


@<TRIPOS>ATOM
      1 N1           6.6600     2.9480    18.4580 nb         1 O0C      -0.643000
      2 C4          10.9900    -0.0800    22.6800 ca         1 O0C      -0.079300
      3 C5           9.9300     0.9560    23.0450 c3         1 O0C      -0.107100
      4 C6           9.3600     1.6160    21.7840 c          1 O0C       0.603100
      5 C7           7.2930     1.4290    20.2670 ca         1 O0C      -0.077000
      6 C8           7.4630     2.6080    19.4960 ca         1 O0C       0.334900
      7 C10          5.3900     0.9310    18.8480 ca         1 O0C      -0.148000
      8 C13          5.9290    -0.6270    20.6040 ca         1 O0C      -0.159000
      9 C15         10.6260    -1.4240    22.4620 ca         1 O0C      -0.099000
     10 O            9.9600     2.5090    21.1970 o          1 O0C      -0.567100
     11 C3          12.3400     0.3000    22.5480 ca         1 O0C      -0.085000
     12 C2          13.3160    -0.6520    22.2040 ca         1 O0C      -0.099000
     13 C1          12.9470    -1.9910    21.9890 ca         1 O0C      -0.094000
     14 C           11.6020    -2.3740    22.1180 ca         1 O0C       0.125000
     15 Cl          11.1370    -4.0490    21.8470 cl         1 O0C      -0.210000
     16 N            8.1450     1.0930    21.3620 ns         1 O0C      -0.153000
     17 C14          6.2190     0.5750    19.9260 ca         1 O0C      -0.005000
     18 C12          4.8360    -1.4040    20.1790 ca         1 O0C       0.340900
     19 N2           4.0390    -1.0570    19.1420 nb         1 O0C      -0.663000
     20 C11          4.3190     0.0970    18.4900 ca         1 O0C       0.380900
     21 C9           5.6420     2.1160    18.1430 ca         1 O0C       0.359900
     22 H1          10.3770     1.7330    23.6760 hc         1 O0C       0.072200
     23 H2           9.1240     0.4600    23.5990 hc         1 O0C       0.072200
     24 H3           8.2520     3.3240    19.7120 h4         1 O0C       0.046100
     25 H4           6.5240    -0.9730    21.4430 ha         1 O0C       0.119000
     26 H5           9.5890    -1.7360    22.5570 ha         1 O0C       0.124000
     27 H6          12.6360     1.3350    22.7090 ha         1 O0C       0.126000
     28 H7          14.3570    -0.3520    22.1040 ha         1 O0C       0.123000
     29 H8          13.6990    -2.7300    21.7230 ha         1 O0C       0.133000
     30 H9           7.7970     0.3380    21.9380 hn         1 O0C       0.154000
     31 H10          4.5920    -2.3360    20.6860 h4         1 O0C       0.022100
     32 H11          3.6640     0.3540    17.6590 h4         1 O0C       0.026100
     33 H12          5.0140     2.4140    17.3040 h4         1 O0C       0.027100
@<TRIPOS>BOND
     1     1     6 ar  
     2     1    21 ar  
     3     2     3 1   
     4     2     9 ar  
     5     2    11 ar  
     6     3     4 1   
     7     3    22 1   
     8     3    23 1   
     9     4    10 2   
    10     4    16 1   
    11     5     6 ar  
    12     5    16 1   
    13     5    17 ar  
    14     6    24 1   
    15     7    17 ar  
    16     7    20 ar  
    17     7    21 ar  
    18     8    17 ar  
    19     8    18 ar  
    20     8    25 1   
    21     9    14 ar  
    22     9    26 1   
    23    11    12 ar  
    24    11    27 1   
    25    12    13 ar  
    26    12    28 1   
    27    13    14 ar  
    28    13    29 1   
    29    14    15 1   
    30    16    30 1   
    31    18    19 ar  
    32    18    31 1   
    33    19    20 ar  
    34    20    32 1   
    35    21    33 1   
@<TRIPOS>SUBSTRUCTURE
     1 O0C         1 TEMP              0 ****  ****    0 ROOT
