@<TRIPOS>MOLECULE
O0D
   31    32     1     0     0
SMALL
bcc


@<TRIPOS>ATOM
      1 CL01        -3.8340     2.5370    -0.9580 cl         1 O0D      -0.074400
      2 C02         -3.5810     0.9520    -0.3440 ca         1 O0D      -0.125900
      3 C03         -2.2810     0.4850    -0.1120 ca         1 O0D       0.675600
      4 O04         -1.2740     1.3210    -0.3900 os         1 O0D      -0.340400
      5 C05          0.0240     0.9210    -0.1290 ca         1 O0D       0.009100
      6 C06          0.7970     0.4120    -1.1520 ca         1 O0D      -0.083000
      7 C07          2.1280     0.0790    -0.9240 ca         1 O0D      -0.205500
      8 C08          2.6890     0.2580     0.3410 ca         1 O0D       0.195100
      9 O09          3.9620    -0.0050     0.6710 os         1 O0D      -0.270900
     10 C10          4.8700    -0.5210    -0.2960 c3         1 O0D      -0.007900
     11 C11          4.6850    -2.0220    -0.4620 c3         1 O0D      -0.098100
     12 C12          6.3110    -0.1760     0.1430 c          1 O0D       0.941600
     13 O13          7.1890    -0.5840    -0.6430 o          1 O0D      -0.812300
     14 O14          6.4710     0.4580     1.1960 o          1 O0D      -0.812300
     15 C15          1.8850     0.7670     1.3670 ca         1 O0D      -0.205500
     16 C16          0.5630     1.0970     1.1360 ca         1 O0D      -0.083000
     17 N17         -2.0430    -0.7150     0.3530 nb         1 O0D      -0.715000
     18 C18         -3.0570    -1.5290     0.6210 ca         1 O0D       0.464200
     19 C19         -4.3700    -1.1510     0.4240 ca         1 O0D      -0.147900
     20 CL20        -5.6570    -2.2380     0.7880 cl         1 O0D      -0.103400
     21 C21         -4.6430     0.1190    -0.0720 ca         1 O0D      -0.059000
     22 H1           0.3760     0.2740    -2.1400 ha         1 O0D       0.127500
     23 H2           2.7020    -0.3160    -1.7500 ha         1 O0D       0.147500
     24 H3           4.7010    -0.0250    -1.2600 h1         1 O0D       0.029700
     25 H4           4.9150    -2.5490     0.4660 hc         1 O0D       0.029033
     26 H5           3.6660    -2.2810    -0.7510 hc         1 O0D       0.029033
     27 H6           5.3530    -2.3950    -1.2360 hc         1 O0D       0.029033
     28 H8           2.3110     0.9110     2.3520 ha         1 O0D       0.147500
     29 H9          -0.0400     1.5000     1.9400 ha         1 O0D       0.127500
     30 H10         -2.8120    -2.5120     1.0050 h4         1 O0D       0.036100
     31 H11         -5.6590     0.4500    -0.2390 ha         1 O0D       0.157000
@<TRIPOS>BOND
     1     1     2 1   
     2     2     3 ar  
     3     2    21 ar  
     4     3     4 1   
     5     3    17 ar  
     6     4     5 1   
     7     5     6 ar  
     8     5    16 ar  
     9     6     7 ar  
    10     6    22 1   
    11     7     8 ar  
    12     7    23 1   
    13     8     9 1   
    14     8    15 ar  
    15     9    10 1   
    16    10    11 1   
    17    10    12 1   
    18    10    24 1   
    19    11    25 1   
    20    11    26 1   
    21    11    27 1   
    22    12    13 1   
    23    12    14 1   
    24    15    16 ar  
    25    15    28 1   
    26    16    29 1   
    27    17    18 ar  
    28    18    19 ar  
    29    18    30 1   
    30    19    20 1   
    31    19    21 ar  
    32    21    31 1   
@<TRIPOS>SUBSTRUCTURE
     1 O0D         1 TEMP              0 ****  ****    0 ROOT
