@<TRIPOS>MOLECULE
O0D
   31    32     1     0     0
SMALL
No Charge or Current Charge


@<TRIPOS>ATOM
      1 Cl01        -3.6860     2.6030    -0.9520 cl         1 O0D      -0.166000
      2 C02         -3.5980     0.9710    -0.2770 ca         1 O0D       0.031000
      3 C03         -2.4090     0.2020    -0.3480 ca         1 O0D       0.610300
      4 O04         -1.3110     0.7420    -0.9880 os         1 O0D      -0.340400
      5 C05         -0.0120     0.5430    -0.5710 ca         1 O0D       0.009100
      6 C06          0.9960     0.4040    -1.5400 ca         1 O0D      -0.065000
      7 C07          2.3350     0.2240    -1.1480 ca         1 O0D      -0.187500
      8 C08          2.6730     0.1860     0.2230 ca         1 O0D       0.195100
      9 O09          3.9690     0.0220     0.6770 os         1 O0D      -0.294100
     10 C10          5.0850    -0.3410    -0.1800 c3         1 O0D       0.015300
     11 C11          4.9260    -1.8370    -0.5590 c3         1 O0D      -0.098100
     12 C12          6.4660    -0.0730     0.5080 c          1 O0D       0.731000
     13 O13          7.4790    -0.2110    -0.1670 o          1 O0D      -0.707000
     14 O14          6.4950     0.3100     1.6730 o          1 O0D      -0.707000
     15 C15          1.6630     0.3490     1.1870 ca         1 O0D      -0.187500
     16 C16          0.3240     0.5290     0.7970 ca         1 O0D      -0.065000
     17 N17         -2.3220    -1.0580     0.1500 nb         1 O0D      -0.715000
     18 C18         -3.4200    -1.5750     0.7540 ca         1 O0D       0.398900
     19 C19         -4.6370    -0.8730     0.8770 ca         1 O0D       0.009000
     20 Cl20        -6.0280    -1.6060     1.6740 cl         1 O0D      -0.195000
     21 C21         -4.7290     0.4250     0.3510 ca         1 O0D      -0.041000
     22 H1           0.7390     0.4340    -2.5960 ha         1 O0D       0.109500
     23 H2           3.0910     0.1200    -1.9190 ha         1 O0D       0.129500
     24 H3           5.0810     0.2690    -1.0920 h1         1 O0D       0.029700
     25 H4           4.9730    -2.4670     0.3370 hc         1 O0D       0.029033
     26 H5           3.9720    -2.0270    -1.0640 hc         1 O0D       0.029033
     27 H6           5.7290    -2.1490    -1.2370 hc         1 O0D       0.029033
     28 H8           1.9220     0.3350     2.2420 ha         1 O0D       0.129500
     29 H9          -0.4420     0.6610     1.5570 ha         1 O0D       0.109500
     30 H10         -3.3240    -2.5850     1.1500 h4         1 O0D       0.036100
     31 H11         -5.6540     0.9920     0.4250 ha         1 O0D       0.139000
@<TRIPOS>BOND
     1     1     2 1   
     2     2     3 ar  
     3     2    21 ar  
     4     3     4 1   
     5     3    17 ar  
     6     4     5 1   
     7     5     6 ar  
     8     5    16 ar  
     9     6     7 ar  
    10     6    22 1   
    11     7     8 ar  
    12     7    23 1   
    13     8     9 1   
    14     8    15 ar  
    15     9    10 1   
    16    10    11 1   
    17    10    12 1   
    18    10    24 1   
    19    11    25 1   
    20    11    26 1   
    21    11    27 1   
    22    12    13 1   
    23    12    14 1   
    24    15    16 ar  
    25    15    28 1   
    26    16    29 1   
    27    17    18 ar  
    28    18    19 ar  
    29    18    30 1   
    30    19    20 1   
    31    19    21 ar  
    32    21    31 1   
@<TRIPOS>SUBSTRUCTURE
     1 O0D         1 TEMP              0 ****  ****    0 ROOT
