@<TRIPOS>MOLECULE
O0E
   65    68     1     0     0
SMALL
No Charge or Current Charge


@<TRIPOS>ATOM
      1 O3          27.9810    -0.5190    42.6680 o          1 O0E      -0.619100
      2 C           27.3620    -1.2620    39.8710 ca         1 O0E       0.349000
      3 O           20.0400     4.5770    48.4860 o          1 O0E      -0.605100
      4 C1          26.5390    -0.4920    40.7270 ca         1 O0E      -0.198600
      5 C10         23.4700     4.0610    46.2710 c          1 O0E       0.609100
      6 C11         21.2240     5.2310    46.4350 c3         1 O0E       0.036700
      7 C12         20.1140     5.3300    47.5260 c          1 O0E       0.597100
      8 C13         20.6440     5.0300    45.0140 c3         1 O0E      -0.105100
      9 C14         24.8050     3.1550    48.2250 c5         1 O0E      -0.086400
     10 C15         25.8510     2.0260    48.3890 c5         1 O0E      -0.094400
     11 C16         26.4970     1.9810    46.9810 c5         1 O0E       0.105000
     12 C17         25.2250    -0.1780    40.2910 ca         1 O0E      -0.030000
     13 C18         24.7540    -0.6180    39.0410 ca         1 O0E      -0.090000
     14 C19         25.5890    -1.3820    38.2040 ca         1 O0E       0.027000
     15 C2          27.0290    -0.0170    42.0820 c          1 O0E       0.623700
     16 C20         25.1200    -1.8230    36.9520 ca         1 O0E      -0.120000
     17 C21         23.8160    -1.5030    36.5370 ca         1 O0E      -0.089000
     18 C22         22.9800    -0.7430    37.3720 ca         1 O0E      -0.130000
     19 C23         23.4460    -0.3010    38.6220 ca         1 O0E      -0.074000
     20 C24         26.8880    -1.6990    38.6260 ca         1 O0E      -0.214000
     21 C3          26.5990     1.6300    43.9740 c3         1 O0E       0.034700
     22 C4          27.4480     2.9150    43.7870 c3         1 O0E      -0.106700
     23 C5          28.8450     2.6490    43.3020 cc         1 O0E       0.233300
     24 C6          29.3030     2.6800    42.0150 cd         1 O0E      -0.213000
     25 C7          30.9400     2.1760    43.4490 cd         1 O0E       0.389400
     26 C8          25.2720     1.9240    44.7430 c          1 O0E       0.606100
     27 C9          24.1540     2.7850    46.8600 c5         1 O0E       0.029700
     28 N1          26.3040     1.0020    42.6640 ns         1 O0E      -0.481900
     29 N2          30.6510     2.3710    42.1120 na         1 O0E      -0.297500
     30 N3          29.8470     2.3520    44.1800 nc         1 O0E      -0.670000
     31 N4          25.3430     2.2960    46.1050 n          1 O0E      -0.395800
     32 N6          19.1930     6.3080    47.3700 nt         1 O0E      -0.602000
     33 O1          23.9520     4.8740    45.4910 o          1 O0E      -0.595100
     34 O2          24.1840     1.8820    44.1750 o          1 O0E      -0.619100
     35 H4          28.9080    -1.4340    41.1800 hn         1 O0E       0.471000
     36 H3          29.1020    -2.3600    39.7200 hn         1 O0E       0.471000
     37 H2          21.7600     6.1900    46.4530 h1         1 O0E       0.073700
     38 H15         19.9810     5.8580    44.7360 hc         1 O0E       0.049700
     39 H16         21.4450     4.9830    44.2670 hc         1 O0E       0.049700
     40 H14         20.0700     4.0970    44.9590 hc         1 O0E       0.049700
     41 H18         25.2940     4.1370    48.1890 hc         1 O0E       0.068700
     42 H17         24.0790     3.1820    49.0460 hc         1 O0E       0.068700
     43 H20         25.3660     1.0720    48.6300 hc         1 O0E       0.056700
     44 H19         26.5820     2.2320    49.1780 hc         1 O0E       0.056700
     45 H22         26.9340     0.9950    46.7730 h1         1 O0E       0.061200
     46 H21         27.2830     2.7410    46.8820 h1         1 O0E       0.061200
     47 H23         24.5470     0.3910    40.9210 ha         1 O0E       0.123000
     48 H24         25.7620    -2.4130    36.3030 ha         1 O0E       0.112000
     49 H25         23.4540    -1.8450    35.5690 ha         1 O0E       0.110000
     50 H26         21.9700    -0.4960    37.0510 ha         1 O0E       0.113000
     51 H27         22.7910     0.2880    39.2610 ha         1 O0E       0.113000
     52 H28         27.5340    -2.2850    37.9790 ha         1 O0E       0.112000
     53 H           27.1670     0.9190    44.5860 h1         1 O0E       0.104700
     54 H6          27.5030     3.4670    44.7310 hc         1 O0E       0.068200
     55 H7          26.9370     3.5840    43.0840 hc         1 O0E       0.068200
     56 H8          28.7880     2.8850    41.0820 h4         1 O0E       0.160000
     57 H10         31.9330     1.9240    43.8030 h5         1 O0E       0.052100
     58 H1          23.4110     1.9830    46.9650 h1         1 O0E       0.066700
     59 H5          25.5090     1.3510    42.1440 hn         1 O0E       0.332500
     60 H9          31.3200     2.2960    41.3540 hn         1 O0E       0.352000
     61 H12         18.4560     6.4040    48.0540 hn         1 O0E       0.314500
     62 H13         19.2460     6.9360    46.5820 hn         1 O0E       0.314500
     63 N5          22.1880     4.1610    46.7720 ns         1 O0E      -0.484900
     64 N           28.6420    -1.5940    40.2060 nv         1 O0E      -1.095000
     65 H11         21.8950     3.4510    47.4350 hn         1 O0E       0.321500
@<TRIPOS>BOND
     1     1    15 2   
     2     2     4 ar  
     3     2    20 ar  
     4     2    64 1   
     5     3     7 2   
     6     4    12 ar  
     7     4    15 1   
     8     5    27 1   
     9     5    33 2   
    10     5    63 1   
    11     6     7 1   
    12     6     8 1   
    13     6    37 1   
    14     6    63 1   
    15     7    32 1   
    16     8    38 1   
    17     8    39 1   
    18     8    40 1   
    19     9    10 1   
    20     9    27 1   
    21     9    41 1   
    22     9    42 1   
    23    10    11 1   
    24    10    43 1   
    25    10    44 1   
    26    11    31 1   
    27    11    45 1   
    28    11    46 1   
    29    12    13 ar  
    30    12    47 1   
    31    13    14 ar  
    32    13    19 ar  
    33    14    16 ar  
    34    14    20 ar  
    35    15    28 1   
    36    16    17 ar  
    37    16    48 1   
    38    17    18 ar  
    39    17    49 1   
    40    18    19 ar  
    41    18    50 1   
    42    19    51 1   
    43    20    52 1   
    44    21    22 1   
    45    21    26 1   
    46    21    28 1   
    47    21    53 1   
    48    22    23 1   
    49    22    54 1   
    50    22    55 1   
    51    23    24 2   
    52    23    30 1   
    53    24    29 1   
    54    24    56 1   
    55    25    29 1   
    56    25    30 2   
    57    25    57 1   
    58    26    31 1   
    59    26    34 2   
    60    27    31 1   
    61    27    58 1   
    62    28    59 1   
    63    29    60 1   
    64    32    61 1   
    65    32    62 1   
    66    35    64 1   
    67    36    64 1   
    68    63    65 1   
@<TRIPOS>SUBSTRUCTURE
     1 O0E         1 TEMP              0 ****  ****    0 ROOT
