@<TRIPOS>MOLECULE
O0E
   65    68     1     0     0
SMALL
abcg2


@<TRIPOS>ATOM
      1 O3          27.8620    -0.4530    42.8220 o          1 O0E      -0.619100
      2 C           27.6420    -0.4730    39.8460 ca         1 O0E       0.349000
      3 O           22.1490     5.7930    48.1950 o          1 O0E      -0.605100
      4 C1          26.5980    -0.3100    40.8130 ca         1 O0E      -0.198600
      5 C10         23.2490     3.6370    46.2180 c          1 O0E       0.609100
      6 C11         21.3220     5.0970    46.0420 c3         1 O0E       0.036700
      7 C12         21.8330     6.1190    47.0630 c          1 O0E       0.597100
      8 C13         19.8050     4.9870    46.1500 c3         1 O0E      -0.105100
      9 C14         24.1470     2.3930    48.2060 c5         1 O0E      -0.086400
     10 C15         25.3270     1.4340    48.3100 c5         1 O0E      -0.094400
     11 C16         26.0510     1.6390    46.9880 c5         1 O0E       0.105000
     12 C17         25.2940    -0.5490    40.4650 ca         1 O0E      -0.030000
     13 C18         24.9270    -0.9560    39.1660 ca         1 O0E      -0.090000
     14 C19         25.9550    -1.1100    38.2010 ca         1 O0E       0.027000
     15 C2          26.9320     0.0700    42.2190 c          1 O0E       0.623700
     16 C20         25.5930    -1.5130    36.8900 ca         1 O0E      -0.120000
     17 C21         24.2840    -1.7460    36.5680 ca         1 O0E      -0.089000
     18 C22         23.2640    -1.5920    37.5320 ca         1 O0E      -0.130000
     19 C23         23.5830    -1.2060    38.8050 ca         1 O0E      -0.074000
     20 C24         27.2910    -0.8640    38.5670 ca         1 O0E      -0.214000
     21 C3          26.3240     1.5720    44.0600 c3         1 O0E       0.034700
     22 C4          27.0560     2.9320    43.9550 c3         1 O0E      -0.106700
     23 C5          28.4060     2.7670    43.3540 cc         1 O0E       0.233300
     24 C6          28.7680     2.8790    42.0400 cd         1 O0E      -0.213000
     25 C7          30.4650     2.2190    43.2490 cd         1 O0E       0.389400
     26 C8          24.9720     1.7880    44.7220 c          1 O0E       0.606100
     27 C9          23.7340     2.2890    46.7300 c5         1 O0E       0.029700
     28 N1          26.1260     1.0010    42.7560 ns         1 O0E      -0.481900
     29 N2          30.0850     2.5290    41.9950 na         1 O0E      -0.297500
     30 N3          29.4780     2.3540    44.0960 nc         1 O0E      -0.670000
     31 N4          24.9530     1.8810    46.0580 n          1 O0E      -0.395800
     32 N6          21.8410     7.3820    46.6200 nt         1 O0E      -0.602000
     33 O1          24.0180     4.5080    45.8480 o          1 O0E      -0.595100
     34 O2          23.9600     1.9350    44.0480 o          1 O0E      -0.619100
     35 H4          29.2120    -0.2350    41.1220 hn         1 O0E       0.471000
     36 H3          29.6410    -0.5010    39.5150 hn         1 O0E       0.471000
     37 H2          21.5790     5.4360    45.0350 h1         1 O0E       0.073700
     38 H15         19.3340     5.9430    45.9280 hc         1 O0E       0.049700
     39 H16         19.4280     4.2560    45.4340 hc         1 O0E       0.049700
     40 H14         19.5010     4.6810    47.1510 hc         1 O0E       0.049700
     41 H18         24.4690     3.4090    48.4390 hc         1 O0E       0.068700
     42 H17         23.3230     2.1420    48.8720 hc         1 O0E       0.068700
     43 H20         24.9770     0.4030    48.3880 hc         1 O0E       0.056700
     44 H19         25.9680     1.6380    49.1660 hc         1 O0E       0.056700
     45 H22         26.6360     0.7670    46.6990 h1         1 O0E       0.061200
     46 H21         26.7220     2.5020    47.0380 h1         1 O0E       0.061200
     47 H23         24.5130    -0.4450    41.2110 ha         1 O0E       0.123000
     48 H24         26.3690    -1.6320    36.1430 ha         1 O0E       0.112000
     49 H25         24.0230    -2.0510    35.5620 ha         1 O0E       0.110000
     50 H26         22.2340    -1.7790    37.2580 ha         1 O0E       0.113000
     51 H27         22.8070    -1.0860    39.5520 ha         1 O0E       0.113000
     52 H28         28.0670    -0.9790    37.8180 ha         1 O0E       0.112000
     53 H           26.9440     0.8840    44.6340 h1         1 O0E       0.104700
     54 H6          27.1420     3.3770    44.9490 hc         1 O0E       0.068200
     55 H7          26.4450     3.6100    43.3550 hc         1 O0E       0.068200
     56 H8          28.2170     3.1690    41.1610 h4         1 O0E       0.160000
     57 H10         31.4720     1.9140    43.4890 h5         1 O0E       0.052100
     58 H1          22.9560     1.5300    46.6010 h1         1 O0E       0.066700
     59 H5          25.4390     1.4440    42.1660 hn         1 O0E       0.332500
     60 H9          30.6650     2.4980    41.1730 hn         1 O0E       0.352000
     61 H12         22.0870     8.1410    47.2350 hn         1 O0E       0.314500
     62 H13         21.5930     7.6160    45.6740 hn         1 O0E       0.314500
     63 N5          21.9220     3.8110    46.2780 ns         1 O0E      -0.484900
     64 N           28.9400    -0.1680    40.1560 nv         1 O0E      -1.095000
     65 H11         21.3440     3.0700    46.6430 hn         1 O0E       0.321500
@<TRIPOS>BOND
     1     1    15 2   
     2     2     4 ar  
     3     2    20 ar  
     4     2    64 1   
     5     3     7 2   
     6     4    12 ar  
     7     4    15 1   
     8     5    27 1   
     9     5    33 2   
    10     5    63 1   
    11     6     7 1   
    12     6     8 1   
    13     6    37 1   
    14     6    63 1   
    15     7    32 1   
    16     8    38 1   
    17     8    39 1   
    18     8    40 1   
    19     9    10 1   
    20     9    27 1   
    21     9    41 1   
    22     9    42 1   
    23    10    11 1   
    24    10    43 1   
    25    10    44 1   
    26    11    31 1   
    27    11    45 1   
    28    11    46 1   
    29    12    13 ar  
    30    12    47 1   
    31    13    14 ar  
    32    13    19 ar  
    33    14    16 ar  
    34    14    20 ar  
    35    15    28 1   
    36    16    17 ar  
    37    16    48 1   
    38    17    18 ar  
    39    17    49 1   
    40    18    19 ar  
    41    18    50 1   
    42    19    51 1   
    43    20    52 1   
    44    21    22 1   
    45    21    26 1   
    46    21    28 1   
    47    21    53 1   
    48    22    23 1   
    49    22    54 1   
    50    22    55 1   
    51    23    24 2   
    52    23    30 1   
    53    24    29 1   
    54    24    56 1   
    55    25    29 1   
    56    25    30 2   
    57    25    57 1   
    58    26    31 1   
    59    26    34 2   
    60    27    31 1   
    61    27    58 1   
    62    28    59 1   
    63    29    60 1   
    64    32    61 1   
    65    32    62 1   
    66    35    64 1   
    67    36    64 1   
    68    63    65 1   
@<TRIPOS>SUBSTRUCTURE
     1 O0E         1 TEMP              0 ****  ****    0 ROOT
