@<TRIPOS>MOLECULE
O0F
   29    30     1     0     0
SMALL
No Charge or Current Charge


@<TRIPOS>ATOM
      1 N1         -15.5970     8.4400   -24.2820 n8         1 O0F      -0.995100
      2 N2         -17.7770    11.5410   -29.6870 nv         1 O0F      -1.104000
      3 C3         -15.8230    10.7330   -28.5310 ca         1 O0F      -0.423500
      4 N4         -20.0290     6.8640   -25.8660 na         1 O0F       0.118600
      5 C5         -16.1130     8.9580   -26.8660 ca         1 O0F      -0.318500
      6 C6         -18.4910     8.1220   -26.3660 cc         1 O0F       0.519500
      7 O3         -16.0360     6.5220   -25.7280 o          1 O0F      -0.549000
      8 S1         -15.3140     7.7900   -25.7530 sy         1 O0F       1.147600
      9 O2         -13.8630     7.8560   -25.9140 o          1 O0F      -0.549000
     10 C4         -15.2820     9.8480   -27.5780 ca         1 O0F       0.115000
     11 O1         -13.4260    11.8720   -28.6850 o          1 O0F      -0.537000
     12 N          -14.3880    10.9810   -30.7320 n8         1 O0F      -0.999100
     13 O          -15.3980    13.0390   -29.8400 o          1 O0F      -0.537000
     14 C2         -17.1980    10.7230   -28.7730 ca         1 O0F       0.464000
     15 C1         -18.0260     9.8510   -28.0670 ca         1 O0F      -0.213000
     16 C          -17.5180     8.9680   -27.0920 ca         1 O0F       0.092500
     17 N6         -18.5340     8.1080   -25.0020 nc         1 O0F      -0.349000
     18 N5         -19.5050     7.3030   -24.6760 nd         1 O0F      -0.162800
     19 N3         -19.3990     7.3850   -26.9690 nd         1 O0F      -0.491800
     20 H1         -16.6110     8.3590   -24.2170 hn         1 O0F       0.476500
     21 H2         -15.2690     7.6990   -23.6690 hn         1 O0F       0.476500
     22 H3         -18.7850    11.6730   -29.6520 hn         1 O0F       0.503500
     23 H4         -17.2280    12.3300   -30.0260 hn         1 O0F       0.503500
     24 H5         -20.8150     6.2160   -25.9130 hn         1 O0F       0.410000
     25 H6         -14.2070     9.8430   -27.3940 ha         1 O0F       0.163000
     26 H7         -13.3760    10.9020   -30.6710 hn         1 O0F       0.480000
     27 H8         -14.7230    10.0540   -30.4850 hn         1 O0F       0.480000
     28 H9         -19.0950     9.8640   -28.2610 ha         1 O0F       0.125000
     29 S          -14.7090    11.8330   -29.3800 sy         1 O0F       1.156600
@<TRIPOS>BOND
     1     1     8 1   
     2     1    20 1   
     3     1    21 1   
     4     2    14 1   
     5     2    22 1   
     6     2    23 1   
     7     3    10 ar  
     8     3    14 ar  
     9     3    29 1   
    10     4    18 1   
    11     4    19 1   
    12     4    24 1   
    13     5     8 1   
    14     5    10 ar  
    15     5    16 ar  
    16     6    16 1   
    17     6    17 1   
    18     6    19 2   
    19     7     8 2   
    20     8     9 2   
    21    10    25 1   
    22    11    29 2   
    23    12    26 1   
    24    12    27 1   
    25    12    29 1   
    26    13    29 2   
    27    14    15 ar  
    28    15    16 ar  
    29    15    28 1   
    30    17    18 2   
@<TRIPOS>SUBSTRUCTURE
     1 O0F         1 TEMP              0 ****  ****    0 ROOT
