@<TRIPOS>MOLECULE
O0F
   29    30     1     0     0
SMALL
abcg2


@<TRIPOS>ATOM
      1 N1         -15.6960     8.4630   -24.2160 n8         1 O0F      -0.995100
      2 N2         -17.6510    11.5540   -29.6320 nv         1 O0F      -1.104000
      3 C3         -15.7550    10.6450   -28.4050 ca         1 O0F      -0.423500
      4 N4         -20.0920     6.8550   -26.0980 na         1 O0F       0.118600
      5 C5         -16.1480     8.8880   -26.8020 ca         1 O0F      -0.318500
      6 C6         -18.5340     8.1160   -26.4100 cc         1 O0F       0.519500
      7 O3         -16.2580     6.5110   -25.6620 o          1 O0F      -0.549000
      8 S1         -15.4530     7.7220   -25.6710 sy         1 O0F       1.147600
      9 O2         -14.0370     7.6090   -25.9910 o          1 O0F      -0.549000
     10 C4         -15.2860     9.7320   -27.4720 ca         1 O0F       0.115000
     11 O1         -13.3060    11.5280   -28.5060 o          1 O0F      -0.537000
     12 N          -14.3190    11.0770   -30.7290 n8         1 O0F      -0.999100
     13 O          -15.1480    12.9930   -29.3880 o          1 O0F      -0.537000
     14 C2         -17.1290    10.7230   -28.7140 ca         1 O0F       0.464000
     15 C1         -17.9830     9.8380   -28.0230 ca         1 O0F      -0.213000
     16 C          -17.5240     8.9490   -27.0800 ca         1 O0F       0.092500
     17 N6         -18.8130     8.1390   -25.0970 nc         1 O0F      -0.349000
     18 N5         -19.8030     7.3290   -24.9250 nd         1 O0F      -0.162800
     19 N3         -19.3440     7.3100   -27.0650 nd         1 O0F      -0.491800
     20 H1         -15.7180     7.7950   -23.4510 hn         1 O0F       0.476500
     21 H2         -15.0170     9.1950   -24.0330 hn         1 O0F       0.476500
     22 H3         -18.6520    11.6130   -29.7110 hn         1 O0F       0.503500
     23 H4         -17.1420    12.3650   -29.9430 hn         1 O0F       0.503500
     24 H5         -20.8420     6.1910   -26.2450 hn         1 O0F       0.410000
     25 H6         -14.2240     9.6840   -27.2720 ha         1 O0F       0.163000
     26 H7         -13.9360    10.1370   -30.7400 hn         1 O0F       0.480000
     27 H8         -15.1190    11.1590   -31.3460 hn         1 O0F       0.480000
     28 H9         -19.0440     9.8850   -28.2320 ha         1 O0F       0.125000
     29 S          -14.5610    11.6720   -29.2180 sy         1 O0F       1.156600
@<TRIPOS>BOND
     1     1     8 1   
     2     1    20 1   
     3     1    21 1   
     4     2    14 1   
     5     2    22 1   
     6     2    23 1   
     7     3    10 ar  
     8     3    14 ar  
     9     3    29 1   
    10     4    18 1   
    11     4    19 1   
    12     4    24 1   
    13     5     8 1   
    14     5    10 ar  
    15     5    16 ar  
    16     6    16 1   
    17     6    17 1   
    18     6    19 2   
    19     7     8 2   
    20     8     9 2   
    21    10    25 1   
    22    11    29 2   
    23    12    26 1   
    24    12    27 1   
    25    12    29 1   
    26    13    29 2   
    27    14    15 ar  
    28    15    16 ar  
    29    15    28 1   
    30    17    18 2   
@<TRIPOS>SUBSTRUCTURE
     1 O0F         1 TEMP              0 ****  ****    0 ROOT
