@<TRIPOS>MOLECULE
O0G
   23    23     1     0     0
SMALL
No Charge or Current Charge


@<TRIPOS>ATOM
      1 N1           0.3010     1.0790     0.4260 nb         1 O0G      -0.741000
      2 C4           1.6510     1.2050     0.3560 ca         1 O0G       0.393900
      3 C5           2.5150     0.1360     0.0290 ca         1 O0G       0.013000
      4 C6           1.9660    -1.1290    -0.2390 ca         1 O0G      -0.065000
      5 C7           0.5710    -1.2660    -0.1690 ca         1 O0G       0.046000
      6 N           -1.5970    -0.2020     0.2550 nu         1 O0G      -0.914100
      7 C           -2.6850     1.4580    -1.2150 c3         1 O0G      -0.113100
      8 C1          -2.5750     0.9020     0.2220 c3         1 O0G       0.236500
      9 C2          -3.9520     0.4140     0.7760 c3         1 O0G       0.150600
     10 C3          -0.2160    -0.1340     0.1650 ca         1 O0G       0.602900
     11 F           -0.0010    -2.4710    -0.4210 f          1 O0G      -0.176000
     12 Cl           4.2600     0.3740    -0.0420 cl         1 O0G      -0.187000
     13 H1           2.0550     2.1940     0.5690 h4         1 O0G       0.034100
     14 H2           2.5990    -1.9750    -0.4930 ha         1 O0G       0.147000
     15 H3          -1.9820    -1.1280     0.0720 hn         1 O0G       0.508000
     16 H4          -1.7210     1.8500    -1.5570 hc         1 O0G       0.046367
     17 H5          -3.0080     0.6790    -1.9160 hc         1 O0G       0.046367
     18 H6          -3.4140     2.2770    -1.2540 hc         1 O0G       0.046367
     19 H7          -5.2780    -1.0170     0.5000 ho         1 O0G       0.448000
     20 H8          -2.2420     1.7190     0.8790 h1         1 O0G       0.081700
     21 H9          -4.6880     1.2220     0.6670 h1         1 O0G       0.031200
     22 H10         -3.8430     0.2160     1.8510 h1         1 O0G       0.031200
     23 O           -4.4100    -0.7800     0.1030 oh         1 O0G      -0.669000
@<TRIPOS>BOND
     1     1     2 ar  
     2     1    10 ar  
     3     2     3 ar  
     4     2    13 1   
     5     3     4 ar  
     6     3    12 1   
     7     4     5 ar  
     8     4    14 1   
     9     5    10 ar  
    10     5    11 1   
    11     6     8 1   
    12     6    10 1   
    13     6    15 1   
    14     7     8 1   
    15     7    16 1   
    16     7    17 1   
    17     7    18 1   
    18     8     9 1   
    19     8    20 1   
    20     9    21 1   
    21     9    22 1   
    22     9    23 1   
    23    19    23 1   
@<TRIPOS>SUBSTRUCTURE
     1 O0G         1 TEMP              0 ****  ****    0 ROOT
