@<TRIPOS>MOLECULE
O0G
   23    23     1     0     0
SMALL
bcc


@<TRIPOS>ATOM
      1 N1           0.2670     1.0650     0.3050 nb         1 O0G      -0.741000
      2 C4           1.5880     1.2100     0.2980 ca         1 O0G       0.459200
      3 C5           2.4500     0.1580     0.0820 ca         1 O0G      -0.143900
      4 C6           1.9200    -1.1140    -0.1390 ca         1 O0G      -0.083000
      5 C7           0.5620    -1.2400    -0.1220 ca         1 O0G      -0.054400
      6 N           -1.6190    -0.2780     0.1620 nu         1 O0G      -0.858900
      7 C           -2.7210     1.4600    -1.2060 c3         1 O0G      -0.113100
      8 C1          -2.5360     0.8480     0.1810 c3         1 O0G       0.236500
      9 C2          -3.8460     0.4010     0.8040 c3         1 O0G       0.127400
     10 C3          -0.2760    -0.1290     0.1080 ca         1 O0G       0.668200
     11 F           -0.0100    -2.4370    -0.3270 f          1 O0G      -0.140900
     12 CL           4.1620     0.4010     0.0780 cl         1 O0G      -0.095400
     13 H1           1.9690     2.2100     0.4680 h4         1 O0G       0.034100
     14 H2           2.5520    -1.9740    -0.3180 ha         1 O0G       0.165000
     15 H3          -2.0000    -1.1480    -0.1760 hn         1 O0G       0.452800
     16 H4          -1.7660     1.8020    -1.6050 hc         1 O0G       0.046367
     17 H5          -3.1430     0.7380    -1.9050 hc         1 O0G       0.046367
     18 H6          -3.3890     2.3210    -1.1600 hc         1 O0G       0.046367
     19 H7          -5.1680    -0.9830     0.4760 ho         1 O0G       0.409000
     20 H8          -2.1180     1.6050     0.8450 h1         1 O0G       0.081700
     21 H9          -4.5100     1.2720     0.8750 h1         1 O0G       0.031200
     22 H10         -3.6530     0.0560     1.8270 h1         1 O0G       0.031200
     23 O           -4.4080    -0.6220     0.0120 oh         1 O0G      -0.606800
@<TRIPOS>BOND
     1     1     2 ar  
     2     1    10 ar  
     3     2     3 ar  
     4     2    13 1   
     5     3     4 ar  
     6     3    12 1   
     7     4     5 ar  
     8     4    14 1   
     9     5    10 ar  
    10     5    11 1   
    11     6     8 1   
    12     6    10 1   
    13     6    15 1   
    14     7     8 1   
    15     7    16 1   
    16     7    17 1   
    17     7    18 1   
    18     8     9 1   
    19     8    20 1   
    20     9    21 1   
    21     9    22 1   
    22     9    23 1   
    23    19    23 1   
@<TRIPOS>SUBSTRUCTURE
     1 O0G         1 TEMP              0 ****  ****    0 ROOT
