@<TRIPOS>MOLECULE
O0H
   60    63     1     0     0
SMALL
No Charge or Current Charge


@<TRIPOS>ATOM
      1 N1          27.8950    39.1590     7.2400 nb         1 O0H      -0.641000
      2 N3          19.6930    36.9770     5.2420 na         1 O0H       0.146500
      3 C4          29.1390    39.5030     7.6720 ca         1 O0H       0.240300
      4 C5          30.2110    39.6820     6.7750 ca         1 O0H      -0.096000
      5 C6          29.3620    39.6980     9.1850 c3         1 O0H       0.269700
      6 C8          23.9630    38.1300     6.4880 ca         1 O0H      -0.062000
      7 C10         21.8560    37.5230     5.4840 ca         1 O0H      -0.149000
      8 C13         23.3280    38.0920     7.7580 ca         1 O0H       0.134100
      9 C15         23.5640    38.3750    10.2040 c3         1 O0H       0.171600
     10 C20         14.1960    35.9510     3.3680 c6         1 O0H       0.157800
     11 C21         13.8380    38.3420     3.2160 c6         1 O0H       0.157800
     12 C22         15.3630    38.6240     3.2780 c6         1 O0H       0.101000
     13 C1          29.9990    39.5030     5.3990 ca         1 O0H      -0.087000
     14 C2          28.7130    39.1480     4.9600 ca         1 O0H      -0.081000
     15 C3          27.6740    38.9810     5.9020 ca         1 O0H       0.294500
     16 F1          29.7890    40.9510     9.4670 f          1 O0H      -0.105000
     17 F2          30.3020    38.8480     9.6620 f          1 O0H      -0.105000
     18 F3          28.2430    39.4930     9.9240 f          1 O0H      -0.105000
     19 O1          25.9980    38.4180     4.2410 o          1 O0H      -0.593100
     20 N2          25.3470    38.4650     6.4570 ns         1 O0H      -0.110000
     21 C9          23.2090    37.8390     5.3240 ca         1 O0H      -0.062000
     22 C11         21.2300    37.4830     6.7010 ca         1 O0H      -0.040000
     23 C12         21.9520    37.7660     7.8670 ca         1 O0H      -0.173000
     24 C14         20.8630    37.1920     4.5230 cc         1 O0H      -0.165100
     25 N4          19.8790    37.1440     6.6180 nc         1 O0H      -0.287400
     26 O2          24.0980    38.3820     8.8700 os         1 O0H      -0.370100
     27 C16         24.7100    38.7420    11.1600 c3         1 O0H      -0.098100
     28 C18         17.5470    37.7580     4.1710 c          1 O0H       0.588100
     29 O3          18.0090    38.8910     4.0810 o          1 O0H      -0.570100
     30 N5          16.1960    37.5090     3.8320 n          1 O0H      -0.404800
     31 C19         15.7380    36.1350     3.4440 c6         1 O0H       0.101000
     32 N6          13.5330    37.0290     2.5930 n3         1 O0H      -0.728600
     33 C23         12.0790    36.8010     2.4360 c3         1 O0H       0.161100
     34 H1          31.1960    39.9570     7.1460 ha         1 O0H       0.144000
     35 H2          22.7540    39.1090    10.3050 h1         1 O0H       0.036700
     36 H3          23.1750    37.3810    10.4640 h1         1 O0H       0.036700
     37 H4          17.8080    36.0950     5.5030 h1         1 O0H       0.082700
     38 H5          18.5290    35.8670     3.8940 h1         1 O0H       0.082700
     39 H7          13.9840    34.9690     2.9200 h1         1 O0H       0.040700
     40 H8          13.3550    39.1550     2.6550 h1         1 O0H       0.040700
     41 H9          13.4340    38.3760     4.2390 h1         1 O0H       0.040700
     42 H10         15.7170    38.8430     2.2610 h1         1 O0H       0.054450
     43 H11         15.5200    39.5320     3.8770 h1         1 O0H       0.054450
     44 H12         30.8120    39.6360     4.6880 ha         1 O0H       0.132000
     45 H13         28.5200    39.0030     3.9000 ha         1 O0H       0.156000
     46 H14         25.7390    38.6460     7.3750 hn         1 O0H       0.200000
     47 H15         23.6420    37.8520     4.3280 ha         1 O0H       0.149000
     48 H16         21.4450    37.7300     8.8260 ha         1 O0H       0.132000
     49 H17         20.8850    37.0970     3.4430 h4         1 O0H       0.227000
     50 H18         24.3520    38.7510    12.1960 hc         1 O0H       0.049700
     51 H19         25.5260    38.0140    11.0820 hc         1 O0H       0.049700
     52 H20         25.1050    39.7370    10.9230 hc         1 O0H       0.049700
     53 H21         16.1250    35.3900     4.1510 h1         1 O0H       0.054450
     54 H22         16.1640    35.8980     2.4590 h1         1 O0H       0.054450
     55 H24         11.6260    37.5940     1.8260 h1         1 O0H       0.032367
     56 H25         11.8890    35.8410     1.9370 h1         1 O0H       0.032367
     57 H26         11.5750    36.7880     3.4120 h1         1 O0H       0.032367
     58 C7          26.2720    38.5950     5.4280 c          1 O0H       0.510600
     59 C17         18.3820    36.5840     4.7080 c3         1 O0H      -0.005400
     60 H6          13.7980    35.9260     4.3930 h1         1 O0H       0.040700
@<TRIPOS>BOND
     1     1     3 ar  
     2     1    15 ar  
     3     2    24 1   
     4     2    25 1   
     5     2    59 1   
     6     3     4 ar  
     7     3     5 1   
     8     4    13 ar  
     9     4    34 1   
    10     5    16 1   
    11     5    17 1   
    12     5    18 1   
    13     6     8 ar  
    14     6    20 1   
    15     6    21 ar  
    16     7    21 ar  
    17     7    22 ar  
    18     7    24 2   
    19     8    23 ar  
    20     8    26 1   
    21     9    26 1   
    22     9    27 1   
    23     9    35 1   
    24     9    36 1   
    25    10    31 1   
    26    10    32 1   
    27    10    39 1   
    28    10    60 1   
    29    11    12 1   
    30    11    32 1   
    31    11    40 1   
    32    11    41 1   
    33    12    30 1   
    34    12    42 1   
    35    12    43 1   
    36    13    14 ar  
    37    13    44 1   
    38    14    15 ar  
    39    14    45 1   
    40    15    58 1   
    41    19    58 2   
    42    20    46 1   
    43    20    58 1   
    44    21    47 1   
    45    22    23 ar  
    46    22    25 2   
    47    23    48 1   
    48    24    49 1   
    49    27    50 1   
    50    27    51 1   
    51    27    52 1   
    52    28    29 2   
    53    28    30 1   
    54    28    59 1   
    55    30    31 1   
    56    31    53 1   
    57    31    54 1   
    58    32    33 1   
    59    33    55 1   
    60    33    56 1   
    61    33    57 1   
    62    37    59 1   
    63    38    59 1   
@<TRIPOS>SUBSTRUCTURE
     1 O0H         1 TEMP              0 ****  ****    0 ROOT
