@<TRIPOS>MOLECULE
O0H
   60    63     1     0     0
SMALL
abcg2


@<TRIPOS>ATOM
      1 N1          27.6100    39.1930     7.0610 nb         1 O0H      -0.641000
      2 N3          19.6610    36.8420     5.3590 na         1 O0H       0.146500
      3 C4          28.8010    39.5610     7.4970 ca         1 O0H       0.240300
      4 C5          29.9060    39.6820     6.6720 ca         1 O0H      -0.096000
      5 C6          28.8530    39.8270     8.9790 c3         1 O0H       0.269700
      6 C8          23.8520    38.0880     6.3460 ca         1 O0H      -0.062000
      7 C10         21.7600    37.4240     5.4170 ca         1 O0H      -0.149000
      8 C13         23.2380    38.1000     7.6590 ca         1 O0H       0.134100
      9 C15         23.6630    38.4180     9.9940 c3         1 O0H       0.171600
     10 C20         14.7610    36.0280     3.0380 c6         1 O0H       0.157800
     11 C21         14.0040    38.2540     3.5690 c6         1 O0H       0.157800
     12 C22         15.3700    38.6970     4.0680 c6         1 O0H       0.101000
     13 C1          29.7340    39.4050     5.3230 ca         1 O0H      -0.087000
     14 C2          28.4880    39.0240     4.8580 ca         1 O0H      -0.081000
     15 C3          27.4480    38.9300     5.7750 ca         1 O0H       0.294500
     16 F1          30.0480    40.2700     9.3710 f          1 O0H      -0.105000
     17 F2          28.5860    38.7180     9.6770 f          1 O0H      -0.105000
     18 F3          27.9470    40.7410     9.3370 f          1 O0H      -0.105000
     19 O1          25.8320    38.2880     4.1530 o          1 O0H      -0.593100
     20 N2          25.2020    38.4370     6.3480 ns         1 O0H      -0.110000
     21 C9          23.1220    37.7520     5.2380 ca         1 O0H      -0.062000
     22 C11         21.1620    37.4440     6.7040 ca         1 O0H      -0.040000
     23 C12         21.9220    37.7920     7.8460 ca         1 O0H      -0.173000
     24 C14         20.7290    37.0300     4.5740 cc         1 O0H      -0.165100
     25 N4          19.8790    37.0910     6.6490 nc         1 O0H      -0.287400
     26 O2          24.0920    38.4420     8.6390 os         1 O0H      -0.370100
     27 C16         24.8630    38.7080    10.8630 c3         1 O0H      -0.098100
     28 C18         17.5000    37.7280     4.6400 c          1 O0H       0.588100
     29 O3          18.0060    38.8370     4.6750 o          1 O0H      -0.570100
     30 N5          16.2080    37.5310     4.3330 n          1 O0H      -0.404800
     31 C19         15.5220    36.2540     4.3410 c6         1 O0H       0.101000
     32 N6          14.1800    37.2630     2.5310 n3         1 O0H      -0.728600
     33 C23         12.9960    37.0210     1.7440 c3         1 O0H       0.161100
     34 H1          30.8720    39.9830     7.0510 ha         1 O0H       0.144000
     35 H2          22.8790    39.1680    10.1470 h1         1 O0H       0.036700
     36 H3          23.2380    37.4380    10.2340 h1         1 O0H       0.036700
     37 H4          17.8920    35.8770     5.7230 h1         1 O0H       0.082700
     38 H5          18.4120    35.8570     4.0420 h1         1 O0H       0.082700
     39 H7          15.4290    35.6060     2.2810 h1         1 O0H       0.040700
     40 H8          13.5050    39.1280     3.1470 h1         1 O0H       0.040700
     41 H9          13.3680    37.9090     4.4000 h1         1 O0H       0.040700
     42 H10         15.8470    39.3140     3.3040 h1         1 O0H       0.054450
     43 H11         15.2640    39.3090     4.9680 h1         1 O0H       0.054450
     44 H12         30.5700    39.4870     4.6420 ha         1 O0H       0.132000
     45 H13         28.3250    38.8030     3.8130 ha         1 O0H       0.156000
     46 H14         25.5950    38.6710     7.2520 hn         1 O0H       0.200000
     47 H15         23.5670    37.7350     4.2560 ha         1 O0H       0.149000
     48 H16         21.4600    37.8070     8.8230 ha         1 O0H       0.132000
     49 H17         20.6900    36.8660     3.5090 h4         1 O0H       0.227000
     50 H18         24.5660    38.6740    11.9100 hc         1 O0H       0.049700
     51 H19         25.6480    37.9670    10.7120 hc         1 O0H       0.049700
     52 H20         25.2740    39.6970    10.6610 hc         1 O0H       0.049700
     53 H21         14.8360    36.2200     5.1920 h1         1 O0H       0.054450
     54 H22         16.2210    35.4340     4.4790 h1         1 O0H       0.054450
     55 H24         12.6420    37.9520     1.3000 h1         1 O0H       0.032367
     56 H25         13.2280    36.3330     0.9300 h1         1 O0H       0.032367
     57 H26         12.1690    36.5830     2.3230 h1         1 O0H       0.032367
     58 C7          26.0720    38.5150     5.3270 c          1 O0H       0.510600
     59 C17         18.3390    36.4810     4.9340 c3         1 O0H      -0.005400
     60 H6          13.9930    35.2670     3.2430 h1         1 O0H       0.040700
@<TRIPOS>BOND
     1     1     3 ar  
     2     1    15 ar  
     3     2    24 1   
     4     2    25 1   
     5     2    59 1   
     6     3     4 ar  
     7     3     5 1   
     8     4    13 ar  
     9     4    34 1   
    10     5    16 1   
    11     5    17 1   
    12     5    18 1   
    13     6     8 ar  
    14     6    20 1   
    15     6    21 ar  
    16     7    21 ar  
    17     7    22 ar  
    18     7    24 2   
    19     8    23 ar  
    20     8    26 1   
    21     9    26 1   
    22     9    27 1   
    23     9    35 1   
    24     9    36 1   
    25    10    31 1   
    26    10    32 1   
    27    10    39 1   
    28    10    60 1   
    29    11    12 1   
    30    11    32 1   
    31    11    40 1   
    32    11    41 1   
    33    12    30 1   
    34    12    42 1   
    35    12    43 1   
    36    13    14 ar  
    37    13    44 1   
    38    14    15 ar  
    39    14    45 1   
    40    15    58 1   
    41    19    58 2   
    42    20    46 1   
    43    20    58 1   
    44    21    47 1   
    45    22    23 ar  
    46    22    25 2   
    47    23    48 1   
    48    24    49 1   
    49    27    50 1   
    50    27    51 1   
    51    27    52 1   
    52    28    29 2   
    53    28    30 1   
    54    28    59 1   
    55    30    31 1   
    56    31    53 1   
    57    31    54 1   
    58    32    33 1   
    59    33    55 1   
    60    33    56 1   
    61    33    57 1   
    62    37    59 1   
    63    38    59 1   
@<TRIPOS>SUBSTRUCTURE
     1 O0H         1 TEMP              0 ****  ****    0 ROOT
