@<TRIPOS>MOLECULE
O0J
   27    28     1     0     0
SMALL
No Charge or Current Charge


@<TRIPOS>ATOM
      1 N1          -4.7350     1.7120    -0.4190 nv         1 O0J      -1.043900
      2 C4           0.2950     0.9610     0.1750 ca         1 O0J      -0.057000
      3 C5          -0.4500    -0.2240    -0.0070 ca         1 O0J      -0.151500
      4 C6           0.2540    -1.4250    -0.2460 ca         1 O0J      -0.057000
      5 C7           1.6590    -1.4420    -0.2600 ca         1 O0J      -0.159500
      6 C8          -1.9210    -0.1790    -0.0270 cc         1 O0J       0.399500
      7 C10         -3.8920     0.6970    -0.2090 cd         1 O0J       0.702300
      8 C            6.2350    -0.0010    -0.0180 c3         1 O0J      -0.182100
      9 O            4.6430     1.7470     0.4080 o          1 O0J      -0.581100
     10 C1           4.8260     0.5680     0.1290 c          1 O0J       0.607100
     11 C2           2.3980    -0.2650    -0.0490 ca         1 O0J      -0.012000
     12 C3           1.7010     0.9420     0.1630 ca         1 O0J      -0.159500
     13 C9          -2.6510    -1.3100     0.2600 cd         1 O0J      -0.279000
     14 N2          -2.6210     0.9730    -0.2810 nc         1 O0J      -0.731000
     15 S           -4.3680    -0.9480     0.1890 ss         1 O0J      -0.111400
     16 H1          -4.3120     2.6300    -0.3720 hn         1 O0J       0.479000
     17 H2          -5.6700     1.6240    -0.0380 hn         1 O0J       0.479000
     18 H3          -0.2150     1.9080     0.3390 ha         1 O0J       0.124000
     19 H4          -0.2790    -2.3550    -0.4350 ha         1 O0J       0.124000
     20 H5           2.1750    -2.3830    -0.4410 ha         1 O0J       0.128000
     21 H6           4.1550    -1.2930    -0.2920 hn         1 O0J       0.148000
     22 H7           6.3450    -0.8580     0.6560 hc         1 O0J       0.063367
     23 H8           6.3300    -0.4680    -1.0050 hc         1 O0J       0.063367
     24 H9           7.0140     0.7500     0.1520 hc         1 O0J       0.063367
     25 H10          2.2250     1.8790     0.3150 ha         1 O0J       0.128000
     26 H11         -2.3020    -2.3000     0.5190 h4         1 O0J       0.159000
     27 N            3.8170    -0.3640    -0.0780 ns         1 O0J      -0.145000
@<TRIPOS>BOND
     1     1     7 1   
     2     1    16 1   
     3     1    17 1   
     4     2     3 ar  
     5     2    12 ar  
     6     2    18 1   
     7     3     4 ar  
     8     3     6 1   
     9     4     5 ar  
    10     4    19 1   
    11     5    11 ar  
    12     5    20 1   
    13     6    13 2   
    14     6    14 1   
    15     7    14 2   
    16     7    15 1   
    17     8    10 1   
    18     8    22 1   
    19     8    23 1   
    20     8    24 1   
    21     9    10 2   
    22    10    27 1   
    23    11    12 ar  
    24    11    27 1   
    25    12    25 1   
    26    13    15 1   
    27    13    26 1   
    28    21    27 1   
@<TRIPOS>SUBSTRUCTURE
     1 O0J         1 TEMP              0 ****  ****    0 ROOT
