@<TRIPOS>MOLECULE
O0J
   27    28     1     0     0
SMALL
bcc


@<TRIPOS>ATOM
      1 N1          -4.6870     1.8300    -0.2210 nv         1 O0J      -0.933500
      2 C4           0.3210     0.8920    -0.0550 ca         1 O0J      -0.075000
      3 C5          -0.4120    -0.2920    -0.0400 ca         1 O0J      -0.151500
      4 C6           0.3030    -1.4920    -0.0240 ca         1 O0J      -0.075000
      5 C7           1.6820    -1.5000    -0.0200 ca         1 O0J      -0.177500
      6 C8          -1.8790    -0.2640    -0.0420 cc         1 O0J       0.464800
      7 C10         -3.8060     0.8120    -0.1030 cd         1 O0J       0.702300
      8 C            6.1670     0.0470    -0.0130 c3         1 O0J      -0.182100
      9 O            4.4950     1.7480    -0.0280 o          1 O0J      -0.581100
     10 C1           4.7480     0.5550    -0.0250 c          1 O0J       0.674100
     11 C2           2.4100    -0.3050    -0.0350 ca         1 O0J       0.080600
     12 C3           1.7080     0.9000    -0.0520 ca         1 O0J      -0.177500
     13 C9          -2.6990    -1.3460     0.0210 cd         1 O0J      -0.217400
     14 N2          -2.5180     0.9510    -0.1090 nc         1 O0J      -0.731000
     15 S           -4.3500    -0.8420    -0.0110 ss         1 O0J      -0.256300
     16 H1          -4.3240     2.7520    -0.0400 hn         1 O0J       0.423800
     17 H2          -5.6350     1.6900     0.0870 hn         1 O0J       0.423800
     18 H3          -0.2030     1.8390    -0.0690 ha         1 O0J       0.142000
     19 H4          -0.2160    -2.4430    -0.0150 ha         1 O0J       0.142000
     20 H5           2.2070    -2.4480    -0.0080 ha         1 O0J       0.146000
     21 H6           4.1440    -1.3670    -0.0290 hn         1 O0J       0.314500
     22 H7           6.2500    -1.0380    -0.0030 hc         1 O0J       0.063367
     23 H8           6.6900     0.4240    -0.8920 hc         1 O0J       0.063367
     24 H9           6.6810     0.4410     0.8630 hc         1 O0J       0.063367
     25 H10          2.2270     1.8440    -0.0640 ha         1 O0J       0.146000
     26 H11         -2.4490    -2.3930     0.0880 h4         1 O0J       0.177000
     27 N            3.8010    -0.4190    -0.0320 ns         1 O0J      -0.471100
@<TRIPOS>BOND
     1     1     7 1   
     2     1    16 1   
     3     1    17 1   
     4     2     3 ar  
     5     2    12 ar  
     6     2    18 1   
     7     3     4 ar  
     8     3     6 1   
     9     4     5 ar  
    10     4    19 1   
    11     5    11 ar  
    12     5    20 1   
    13     6    13 2   
    14     6    14 1   
    15     7    14 2   
    16     7    15 1   
    17     8    10 1   
    18     8    22 1   
    19     8    23 1   
    20     8    24 1   
    21     9    10 2   
    22    10    27 1   
    23    11    12 ar  
    24    11    27 1   
    25    12    25 1   
    26    13    15 1   
    27    13    26 1   
    28    21    27 1   
@<TRIPOS>SUBSTRUCTURE
     1 O0J         1 TEMP              0 ****  ****    0 ROOT
