@<TRIPOS>MOLECULE
O0L
   32    34     1     0     0
SMALL
No Charge or Current Charge


@<TRIPOS>ATOM
      1 C1          -2.4820     9.4560    27.6190 ca         1 O0L      -0.209000
      2 C2          -2.0860    10.3610    28.6080 ca         1 O0L      -0.047000
      3 C3          -0.7230    10.5830    28.8300 ca         1 O0L      -0.144000
      4 C4           0.2670     9.9140    28.0740 cp         1 O0L       0.055000
      5 C5           1.6960    10.2620    28.3370 cp         1 O0L      -0.046000
      6 C6           2.5290    10.7650    27.3080 ca         1 O0L      -0.090500
      7 C7           3.8660    11.1140    27.5640 ca         1 O0L      -0.089000
      8 C8           4.4010    10.9760    28.8590 ca         1 O0L      -0.074300
      9 C9           5.8480    11.3600    29.1400 c3         1 O0L       0.208900
     10 C10          3.5800    10.4890    29.8950 ca         1 O0L      -0.089000
     11 C11          2.2430    10.1410    29.6370 ca         1 O0L      -0.090500
     12 O1           6.7080    10.2300    28.9620 oh         1 O0L      -0.650000
     13 C12         -0.1340     8.9820    27.0640 ca         1 O0L      -0.179500
     14 C           -1.5230     8.7690    26.8590 ca         1 O0L       0.163100
     15 O           -1.9740     7.8740    25.9330 oh         1 O0L      -0.536100
     16 C13          0.8420     8.1720    26.3110 cc         1 O0L       0.466000
     17 N3           0.6990     7.7130    25.0330 na         1 O0L      -0.201700
     18 N2           1.7850     6.9970    24.6490 nc         1 O0L      -0.212800
     19 N1           2.5710     7.0250    25.6900 nd         1 O0L      -0.047000
     20 N            2.0130     7.7320    26.7300 nd         1 O0L      -0.369000
     21 H1          -3.5430     9.2850    27.4530 ha         1 O0L       0.120000
     22 H2          -2.8310    10.8910    29.1990 ha         1 O0L       0.119000
     23 H3          -0.4220    11.3000    29.5900 ha         1 O0L       0.128000
     24 H4           2.1290    10.8870    26.3030 ha         1 O0L       0.113500
     25 H5           4.4870    11.4920    26.7550 ha         1 O0L       0.118000
     26 H6           6.1450    12.1740    28.4650 h1         1 O0L       0.024700
     27 H7           5.9290    11.7410    30.1670 h1         1 O0L       0.024700
     28 H8           3.9790    10.3790    30.9010 ha         1 O0L       0.118000
     29 H9           1.6230     9.7660    30.4480 ha         1 O0L       0.113500
     30 H10          7.6210    10.5370    29.1550 ho         1 O0L       0.442000
     31 H11         -2.9540     7.8450    25.9820 ho         1 O0L       0.476000
     32 H12         -0.1100     7.8480    24.4410 hn         1 O0L       0.386000
@<TRIPOS>BOND
     1     1     2 ar  
     2     1    14 ar  
     3     1    21 1   
     4     2     3 ar  
     5     2    22 1   
     6     3     4 ar  
     7     3    23 1   
     8     4     5 1   
     9     4    13 ar  
    10     5     6 ar  
    11     5    11 ar  
    12     6     7 ar  
    13     6    24 1   
    14     7     8 ar  
    15     7    25 1   
    16     8     9 1   
    17     8    10 ar  
    18     9    12 1   
    19     9    26 1   
    20     9    27 1   
    21    10    11 ar  
    22    10    28 1   
    23    11    29 1   
    24    12    30 1   
    25    13    14 ar  
    26    13    16 1   
    27    14    15 1   
    28    15    31 1   
    29    16    17 1   
    30    16    20 2   
    31    17    18 1   
    32    17    32 1   
    33    18    19 2   
    34    19    20 1   
@<TRIPOS>SUBSTRUCTURE
     1 O0L         1 TEMP              0 ****  ****    0 ROOT
