@<TRIPOS>MOLECULE
O0L
   32    34     1     0     0
SMALL
bcc


@<TRIPOS>ATOM
      1 C1          -2.4720     9.3760    27.7320 ca         1 O0L      -0.227000
      2 C2          -2.0580    10.2720    28.7020 ca         1 O0L      -0.065000
      3 C3          -0.7110    10.5380    28.8970 ca         1 O0L      -0.162000
      4 C4           0.2490     9.9070    28.1130 cp         1 O0L       0.055000
      5 C5           1.6770    10.2400    28.3060 cp         1 O0L      -0.046000
      6 C6           2.4540    10.7070    27.2490 ca         1 O0L      -0.108500
      7 C7           3.7880    11.0320    27.4460 ca         1 O0L      -0.107000
      8 C8           4.3790    10.9100    28.6990 ca         1 O0L      -0.074300
      9 C9           5.8170    11.2900    28.9150 c3         1 O0L       0.185700
     10 C10          3.5990    10.4470    29.7570 ca         1 O0L      -0.107000
     11 C11          2.2660    10.1230    29.5640 ca         1 O0L      -0.108500
     12 O1           6.4760    10.2480    29.5980 oh         1 O0L      -0.587800
     13 C12         -0.1610     8.9880    27.1390 ca         1 O0L      -0.179500
     14 C           -1.5230     8.7270    26.9480 ca         1 O0L       0.163100
     15 O           -1.8460     7.8240    26.0090 oh         1 O0L      -0.497100
     16 C13          0.8180     8.2230    26.3630 cc         1 O0L       0.466000
     17 N3           0.9350     8.2150    25.0330 na         1 O0L      -0.151400
     18 N2           1.9200     7.4090    24.6880 nc         1 O0L      -0.212800
     19 N1           2.3940     6.9370    25.7750 nd         1 O0L      -0.047000
     20 N            1.7380     7.4120    26.8320 nd         1 O0L      -0.369000
     21 H1          -3.5260     9.1730    27.5860 ha         1 O0L       0.138000
     22 H2          -2.7990    10.7740    29.3100 ha         1 O0L       0.137000
     23 H3          -0.4020    11.2570    29.6440 ha         1 O0L       0.146000
     24 H4           2.0180    10.8280    26.2650 ha         1 O0L       0.131500
     25 H5           4.3750    11.3890    26.6080 ha         1 O0L       0.136000
     26 H6           6.2850    11.5030    27.9450 h1         1 O0L       0.024700
     27 H7           5.8520    12.2250    29.4900 h1         1 O0L       0.024700
     28 H8           4.0300    10.3390    30.7440 ha         1 O0L       0.136000
     29 H9           1.6790     9.7580    30.3980 ha         1 O0L       0.131500
     30 H10          7.3240    10.5810    29.9050 ho         1 O0L       0.403000
     31 H11         -2.8010     7.6940    25.9650 ho         1 O0L       0.437000
     32 H12          0.4030     8.7160    24.3340 hn         1 O0L       0.335700
@<TRIPOS>BOND
     1     1     2 ar  
     2     1    14 ar  
     3     1    21 1   
     4     2     3 ar  
     5     2    22 1   
     6     3     4 ar  
     7     3    23 1   
     8     4     5 1   
     9     4    13 ar  
    10     5     6 ar  
    11     5    11 ar  
    12     6     7 ar  
    13     6    24 1   
    14     7     8 ar  
    15     7    25 1   
    16     8     9 1   
    17     8    10 ar  
    18     9    12 1   
    19     9    26 1   
    20     9    27 1   
    21    10    11 ar  
    22    10    28 1   
    23    11    29 1   
    24    12    30 1   
    25    13    14 ar  
    26    13    16 1   
    27    14    15 1   
    28    15    31 1   
    29    16    17 1   
    30    16    20 2   
    31    17    18 1   
    32    17    32 1   
    33    18    19 2   
    34    19    20 1   
@<TRIPOS>SUBSTRUCTURE
     1 O0L         1 TEMP              0 ****  ****    0 ROOT
