@<TRIPOS>MOLECULE
O0M
   40    41     1     0     0
SMALL
No Charge or Current Charge


@<TRIPOS>ATOM
      1 C4           2.4110    -0.7980    -1.0280 ca         1 O0M      -0.111000
      2 C5           1.1060    -1.2150    -0.7150 ca         1 O0M      -0.099500
      3 C6           0.5230    -0.8680     0.5180 ca         1 O0M      -0.088300
      4 C7          -0.8960    -1.3230     0.8540 c3         1 O0M       0.217100
      5 C8          -3.2820    -1.2830     0.2450 c6         1 O0M       0.170800
      6 C10         -4.4100     0.8360    -0.6490 c6         1 O0M       0.169300
      7 C13          1.2630    -0.0970     1.4350 ca         1 O0M      -0.099500
      8 N           -1.9380    -0.6870     0.0120 n3         1 O0M      -0.724600
      9 C            4.6760     1.9660    -0.5390 c3         1 O0M      -0.084100
     10 C11         -2.9950     1.4400    -0.8100 c6         1 O0M      -0.090400
     11 C12         -1.9780     0.7960     0.1640 c6         1 O0M       0.170800
     12 C14          2.5680     0.3210     1.1220 ca         1 O0M      -0.111000
     13 C2           5.6150    -0.1690     0.5100 c3         1 O0M      -0.084100
     14 C3           3.1540    -0.0260    -0.1130 ca         1 O0M      -0.073300
     15 C9          -4.3370    -0.7060    -0.7300 c6         1 O0M      -0.090400
     16 H1           2.8420    -1.0760    -1.9870 ha         1 O0M       0.109500
     17 H2           0.5420    -1.8070    -1.4320 ha         1 O0M       0.117500
     18 H3          -0.9340    -2.4140     0.7260 h1         1 O0M       0.037200
     19 H4          -1.0980    -1.1230     1.9150 h1         1 O0M       0.037200
     20 H5          -3.2420    -2.3750     0.1090 h1         1 O0M       0.036950
     21 H6          -3.6070    -1.1000     1.2800 h1         1 O0M       0.036950
     22 H7          -5.0350     1.1940    -1.4810 h1         1 O0M       0.031700
     23 H8           0.8260     0.1820     2.3910 ha         1 O0M       0.117500
     24 H10          5.6760     2.2710    -0.8700 hc         1 O0M       0.034200
     25 H11          3.9450     2.3640    -1.2530 hc         1 O0M       0.034200
     26 H12          4.4860     2.4240     0.4390 hc         1 O0M       0.034200
     27 H13         -5.1340     2.2190     0.5310 ho         1 O0M       0.439000
     28 H14          4.8280     0.0470    -1.4630 hc         1 O0M       0.048700
     29 H15         -2.6500     1.2830    -1.8410 hc         1 O0M       0.051700
     30 H16         -3.0220     2.5280    -0.6590 hc         1 O0M       0.051700
     31 H17         -2.2430     1.0670     1.1970 h1         1 O0M       0.036950
     32 H18         -0.9890     1.2330    -0.0380 h1         1 O0M       0.036950
     33 H19          3.1220     0.9170     1.8430 ha         1 O0M       0.109500
     34 H20          5.5400    -1.2630     0.5300 hc         1 O0M       0.034200
     35 H21          6.6320     0.0960     0.1970 hc         1 O0M       0.034200
     36 H22          5.4630     0.2050     1.5300 hc         1 O0M       0.034200
     37 H23         -4.0810    -1.0050    -1.7550 hc         1 O0M       0.051700
     38 H24         -5.3220    -1.1440    -0.5180 hc         1 O0M       0.051700
     39 O           -5.0010     1.2480     0.5910 oh         1 O0M      -0.664000
     40 C1           4.5740     0.4260    -0.4640 c3         1 O0M      -0.016400
@<TRIPOS>BOND
     1     1     2 ar  
     2     1    14 ar  
     3     1    16 1   
     4     2     3 ar  
     5     2    17 1   
     6     3     4 1   
     7     3     7 ar  
     8     4     8 1   
     9     4    18 1   
    10     4    19 1   
    11     5     8 1   
    12     5    15 1   
    13     5    20 1   
    14     5    21 1   
    15     6    10 1   
    16     6    15 1   
    17     6    22 1   
    18     6    39 1   
    19     7    12 ar  
    20     7    23 1   
    21     8    11 1   
    22     9    24 1   
    23     9    25 1   
    24     9    26 1   
    25     9    40 1   
    26    10    11 1   
    27    10    29 1   
    28    10    30 1   
    29    11    31 1   
    30    11    32 1   
    31    12    14 ar  
    32    12    33 1   
    33    13    34 1   
    34    13    35 1   
    35    13    36 1   
    36    13    40 1   
    37    14    40 1   
    38    15    37 1   
    39    15    38 1   
    40    27    39 1   
    41    28    40 1   
@<TRIPOS>SUBSTRUCTURE
     1 O0M         1 TEMP              0 ****  ****    0 ROOT
