@<TRIPOS>MOLECULE
O0M
   40    41     1     0     0
SMALL
abcg2


@<TRIPOS>ATOM
      1 C4           2.1930    -0.3920    -1.0400 ca         1 O0M      -0.111000
      2 C5           0.8950    -0.7250    -0.6770 ca         1 O0M      -0.099500
      3 C6           0.4790    -0.6240     0.6470 ca         1 O0M      -0.088300
      4 C7          -0.9180    -1.0160     1.0570 c3         1 O0M       0.217100
      5 C8          -3.2030    -1.2350     0.3700 c6         1 O0M       0.170800
      6 C10         -4.4000     0.6250    -0.8420 c6         1 O0M       0.169300
      7 C13          1.4000    -0.1810     1.5900 ca         1 O0M      -0.099500
      8 N           -1.9260    -0.5940     0.1090 n3         1 O0M      -0.724600
      9 C            4.7790     1.9210    -0.2830 c3         1 O0M      -0.084100
     10 C11         -3.0330     1.2750    -1.0210 c6         1 O0M      -0.090400
     11 C12         -2.0580     0.8530     0.0660 c6         1 O0M       0.170800
     12 C14          2.6990     0.1460     1.2270 ca         1 O0M      -0.111000
     13 C2           5.5700    -0.4150     0.2240 c3         1 O0M      -0.084100
     14 C3           3.1190     0.0500    -0.0980 ca         1 O0M      -0.073300
     15 C9          -4.2230    -0.8790    -0.7020 c6         1 O0M      -0.090400
     16 H1           2.4900    -0.4740    -2.0800 ha         1 O0M       0.109500
     17 H2           0.1910    -1.0520    -1.4330 ha         1 O0M       0.117500
     18 H3          -0.9690    -2.1080     1.1330 h1         1 O0M       0.037200
     19 H4          -1.1170    -0.6330     2.0730 h1         1 O0M       0.037200
     20 H5          -3.0510    -2.3170     0.3770 h1         1 O0M       0.036950
     21 H6          -3.5960    -0.9670     1.3650 h1         1 O0M       0.036950
     22 H7          -5.0140     0.8340    -1.7280 h1         1 O0M       0.031700
     23 H8           1.0980    -0.0840     2.6270 ha         1 O0M       0.117500
     24 H10          5.7790     2.1970    -0.6230 hc         1 O0M       0.034200
     25 H11          4.0600     2.5330    -0.8270 hc         1 O0M       0.034200
     26 H12          4.7070     2.1840     0.7750 hc         1 O0M       0.034200
     27 H13         -5.0630     2.0530     0.3000 ho         1 O0M       0.439000
     28 H14          4.6210     0.2300    -1.5750 hc         1 O0M       0.048700
     29 H15         -2.6330     0.9840    -1.9960 hc         1 O0M       0.051700
     30 H16         -3.1250     2.3660    -1.0330 hc         1 O0M       0.051700
     31 H17         -2.3800     1.2550     1.0420 h1         1 O0M       0.036950
     32 H18         -1.0800     1.2910    -0.1420 h1         1 O0M       0.036950
     33 H19          3.3860     0.4900     1.9920 ha         1 O0M       0.109500
     34 H20          5.4200    -1.4800     0.0390 hc         1 O0M       0.034200
     35 H21          6.5760    -0.1550    -0.1080 hc         1 O0M       0.034200
     36 H22          5.5290    -0.2560     1.3030 hc         1 O0M       0.034200
     37 H23         -3.8910    -1.2790    -1.6630 hc         1 O0M       0.051700
     38 H24         -5.1800    -1.3560    -0.4730 hc         1 O0M       0.051700
     39 O           -5.0560     1.0910     0.3250 oh         1 O0M      -0.664000
     40 C1           4.5250     0.4300    -0.5040 c3         1 O0M      -0.016400
@<TRIPOS>BOND
     1     1     2 ar  
     2     1    14 ar  
     3     1    16 1   
     4     2     3 ar  
     5     2    17 1   
     6     3     4 1   
     7     3     7 ar  
     8     4     8 1   
     9     4    18 1   
    10     4    19 1   
    11     5     8 1   
    12     5    15 1   
    13     5    20 1   
    14     5    21 1   
    15     6    10 1   
    16     6    15 1   
    17     6    22 1   
    18     6    39 1   
    19     7    12 ar  
    20     7    23 1   
    21     8    11 1   
    22     9    24 1   
    23     9    25 1   
    24     9    26 1   
    25     9    40 1   
    26    10    11 1   
    27    10    29 1   
    28    10    30 1   
    29    11    31 1   
    30    11    32 1   
    31    12    14 ar  
    32    12    33 1   
    33    13    34 1   
    34    13    35 1   
    35    13    36 1   
    36    13    40 1   
    37    14    40 1   
    38    15    37 1   
    39    15    38 1   
    40    27    39 1   
    41    28    40 1   
@<TRIPOS>SUBSTRUCTURE
     1 O0M         1 TEMP              0 ****  ****    0 ROOT
