@<TRIPOS>MOLECULE
O0O
   56    58     1     0     0
SMALL
No Charge or Current Charge


@<TRIPOS>ATOM
      1 C13        -18.6300   -17.9540     4.3580 ca         1 O0O      -0.054000
      2 C12        -19.6740   -18.8770     4.1820 ca         1 O0O       0.061000
      3 C14        -17.4730   -18.0450     3.5630 ca         1 O0O      -0.192500
      4 C15        -14.7360   -18.9810    -0.1960 c6         1 O0O      -0.121900
      5 C16        -14.5910   -17.4370    -0.1960 c6         1 O0O       0.147300
      6 C11        -19.5600   -19.8900     3.2160 ca         1 O0O      -0.054000
      7 C3         -18.0630   -25.5650    -2.1280 c3         1 O0O       0.109000
      8 N2         -16.2990   -21.6130    -1.1500 n          1 O0O      -0.403800
      9 C4         -17.4180   -24.1530    -2.2440 c6         1 O0O      -0.085700
     10 C5         -18.3270   -23.0330    -1.6730 c6         1 O0O      -0.093900
     11 C8         -16.1000   -19.4940     0.3740 c6         1 O0O       0.199200
     12 C7         -16.1080   -21.0890     0.1480 c          1 O0O       0.592100
     13 C1         -19.5080   -25.7780    -4.1860 c          1 O0O       0.589100
     14 C17        -17.0210   -17.1870    -0.4080 c6         1 O0O       0.147300
     15 C20        -16.0460   -24.1030    -1.5300 c6         1 O0O      -0.093900
     16 C19        -15.4090   -22.6980    -1.6420 c6         1 O0O       0.101000
     17 C18        -17.1910   -18.7250    -0.4530 c6         1 O0O      -0.121900
     18 O1         -18.5520   -25.8420    -4.9490 o          1 O0O      -0.607100
     19 C2         -20.9630   -25.8040    -4.6720 c3         1 O0O       0.037600
     20 C6         -17.6530   -21.6430    -1.7720 c6         1 O0O       0.101000
     21 O2         -15.8830   -21.8720     1.0700 o          1 O0O      -0.615100
     22 C9         -17.3550   -19.0500     2.5900 ca         1 O0O       0.345000
     23 C10        -18.4010   -19.9770     2.4240 ca         1 O0O      -0.192500
     24 Cl2        -21.1230   -18.7660     5.1730 cl         1 O0O      -0.221000
     25 N4         -15.6970   -16.7970    -0.9410 n7         1 O0O      -0.842400
     26 H1         -18.7180   -17.1710     5.1070 ha         1 O0O       0.127000
     27 H2         -16.6700   -17.3270     3.7030 ha         1 O0O       0.122000
     28 H3         -13.9090   -19.4220     0.3760 hc         1 O0O       0.064200
     29 H4         -14.6090   -19.3450    -1.2250 hc         1 O0O       0.064200
     30 H5         -13.6290   -17.1590    -0.6530 h1         1 O0O       0.056450
     31 H6         -14.5790   -17.0620     0.8380 h1         1 O0O       0.056450
     32 H7         -20.3670   -20.6070     3.0830 ha         1 O0O       0.127000
     33 H8         -18.2150   -25.8040    -1.0670 h1         1 O0O       0.063700
     34 H9         -17.3740   -26.3120    -2.5440 h1         1 O0O       0.063700
     35 H10        -17.2590   -23.9650    -3.3160 hc         1 O0O       0.062700
     36 H11        -18.5640   -23.2460    -0.6220 hc         1 O0O       0.054200
     37 H12        -19.2860   -23.0050    -2.2090 hc         1 O0O       0.054200
     38 H13        -17.8130   -16.7130    -1.0070 h1         1 O0O       0.056450
     39 H14        -17.1320   -16.8250     0.6260 h1         1 O0O       0.056450
     40 H15        -16.1640   -24.3650    -0.4700 hc         1 O0O       0.054200
     41 H16        -15.3650   -24.8480    -1.9630 hc         1 O0O       0.054200
     42 H17        -15.1630   -22.4960    -2.6950 h1         1 O0O       0.056450
     43 H18        -14.4610   -22.6800    -1.0850 h1         1 O0O       0.056450
     44 H19        -18.1990   -18.9860    -0.1100 hc         1 O0O       0.064200
     45 H20        -17.1390   -19.0210    -1.5080 hc         1 O0O       0.064200
     46 H21        -20.9730   -26.0030    -5.7490 h1         1 O0O       0.096200
     47 H22        -21.4970   -26.6060    -4.1480 h1         1 O0O       0.096200
     48 Cl1        -21.8510   -24.2330    -4.3690 cl         1 O0O      -0.281000
     49 H24        -20.2020   -25.6120    -2.2690 hn         1 O0O       0.330500
     50 H25        -17.5660   -21.3510    -2.8280 h1         1 O0O       0.056450
     51 H26        -18.3190   -20.9210    -1.2840 h1         1 O0O       0.056450
     52 H27        -15.4360   -18.5150     2.1810 hn         1 O0O       0.490000
     53 H28        -18.3240   -20.7690     1.6880 ha         1 O0O       0.122000
     54 H23        -15.6420   -17.0930    -1.9230 hn         1 O0O       0.405000
     55 N3         -16.1880   -19.1020     1.8250 nu         1 O0O      -0.994200
     56 N1         -19.3520   -25.6720    -2.8190 ns         1 O0O      -0.491900
@<TRIPOS>BOND
     1     1     2 ar  
     2     1     3 ar  
     3     1    26 1   
     4     2     6 ar  
     5     2    24 1   
     6     3    22 ar  
     7     3    27 1   
     8     4     5 1   
     9     4    11 1   
    10     4    28 1   
    11     4    29 1   
    12     5    25 1   
    13     5    30 1   
    14     5    31 1   
    15     6    23 ar  
    16     6    32 1   
    17     7     9 1   
    18     7    33 1   
    19     7    34 1   
    20     7    56 1   
    21     8    12 1   
    22     8    16 1   
    23     8    20 1   
    24     9    10 1   
    25     9    15 1   
    26     9    35 1   
    27    10    20 1   
    28    10    36 1   
    29    10    37 1   
    30    11    12 1   
    31    11    17 1   
    32    11    55 1   
    33    12    21 2   
    34    13    18 2   
    35    13    19 1   
    36    13    56 1   
    37    14    17 1   
    38    14    25 1   
    39    14    38 1   
    40    14    39 1   
    41    15    16 1   
    42    15    40 1   
    43    15    41 1   
    44    16    42 1   
    45    16    43 1   
    46    17    44 1   
    47    17    45 1   
    48    19    46 1   
    49    19    47 1   
    50    19    48 1   
    51    20    50 1   
    52    20    51 1   
    53    22    23 ar  
    54    22    55 1   
    55    23    53 1   
    56    25    54 1   
    57    49    56 1   
    58    52    55 1   
@<TRIPOS>SUBSTRUCTURE
     1 O0O         1 TEMP              0 ****  ****    0 ROOT
