@<TRIPOS>MOLECULE
O0O
   56    58     1     0     0
SMALL
abcg2


@<TRIPOS>ATOM
      1 C13        -19.5230   -20.9450     2.5100 ca         1 O0O      -0.054000
      2 C12        -18.7870   -22.0060     3.0260 ca         1 O0O       0.061000
      3 C14        -18.9110   -20.0360     1.6670 ca         1 O0O      -0.192500
      4 C15        -14.6730   -18.7900     0.9780 c6         1 O0O      -0.121900
      5 C16        -14.9470   -17.3490     1.4040 c6         1 O0O       0.147300
      6 C11        -17.4450   -22.1480     2.7090 ca         1 O0O      -0.054000
      7 C3         -18.9840   -24.5040    -1.3490 c3         1 O0O       0.109000
      8 N2         -16.0410   -21.3630    -1.4630 n          1 O0O      -0.403800
      9 C4         -18.0140   -23.4610    -1.9050 c6         1 O0O      -0.085700
     10 C5         -18.4120   -22.0380    -1.5130 c6         1 O0O      -0.093900
     11 C8         -15.6690   -19.2520    -0.1120 c6         1 O0O       0.199200
     12 C7         -15.2200   -20.6390    -0.6680 c          1 O0O       0.592100
     13 C1         -20.7580   -24.8870    -2.9960 c          1 O0O       0.589100
     14 C17        -15.7890   -16.7830    -0.7910 c6         1 O0O       0.147300
     15 C20        -16.5890   -23.7560    -1.4330 c6         1 O0O      -0.093900
     16 C19        -15.6110   -22.6890    -1.9150 c6         1 O0O       0.101000
     17 C18        -15.5950   -18.2280    -1.2680 c6         1 O0O      -0.121900
     18 O1         -20.0670   -25.6010    -3.7240 o          1 O0O      -0.607100
     19 C2         -22.1860   -24.6270    -3.4520 c3         1 O0O       0.037600
     20 C6         -17.3720   -21.0150    -1.9670 c6         1 O0O       0.101000
     21 O2         -14.0890   -21.0450    -0.3810 o          1 O0O      -0.615100
     22 C9         -17.5540   -20.1630     1.3120 ca         1 O0O       0.345000
     23 C10        -16.8290   -21.2330     1.8640 ca         1 O0O      -0.192500
     24 CL2        -19.5640   -23.1720     4.0870 cl         1 O0O      -0.221000
     25 N4         -14.8930   -16.3890     0.2960 n7         1 O0O      -0.842400
     26 H1         -20.5690   -20.8340     2.7590 ha         1 O0O       0.127000
     27 H2         -19.4890   -19.2190     1.2520 ha         1 O0O       0.122000
     28 H3         -14.7320   -19.4510     1.8440 hc         1 O0O       0.064200
     29 H4         -13.6600   -18.8640     0.5840 hc         1 O0O       0.064200
     30 H5         -14.2190   -17.0480     2.1590 h1         1 O0O       0.056450
     31 H6         -15.9370   -17.2770     1.8640 h1         1 O0O       0.056450
     32 H7         -16.8740   -22.9720     3.1130 ha         1 O0O       0.127000
     33 H8         -19.0240   -24.4320    -0.2610 h1         1 O0O       0.063700
     34 H9         -18.6410   -25.5050    -1.6120 h1         1 O0O       0.063700
     35 H10        -18.0310   -23.5350    -2.9980 hc         1 O0O       0.062700
     36 H11        -18.5260   -21.9770    -0.4290 hc         1 O0O       0.054200
     37 H12        -19.3740   -21.7750    -1.9590 hc         1 O0O       0.054200
     38 H13        -15.6370   -16.1090    -1.6350 h1         1 O0O       0.056450
     39 H14        -16.8180   -16.6310    -0.4520 h1         1 O0O       0.056450
     40 H15        -16.5620   -23.7930    -0.3400 hc         1 O0O       0.054200
     41 H16        -16.2630   -24.7330    -1.8020 hc         1 O0O       0.054200
     42 H17        -15.5750   -22.6820    -3.0100 h1         1 O0O       0.056450
     43 H18        -14.6100   -22.8720    -1.5410 h1         1 O0O       0.056450
     44 H19        -16.3310   -18.4620    -2.0390 hc         1 O0O       0.064200
     45 H20        -14.6070   -18.3230    -1.7240 hc         1 O0O       0.064200
     46 H21        -22.1540   -24.1550    -4.4310 h1         1 O0O       0.096200
     47 H22        -22.7060   -25.5780    -3.5250 h1         1 O0O       0.096200
     48 CL1        -23.1850   -23.5610    -2.3880 cl         1 O0O      -0.281000
     49 H24        -20.9810   -23.7540    -1.3420 hn         1 O0O       0.330500
     50 H25        -17.3160   -21.0100    -3.0610 h1         1 O0O       0.056450
     51 H26        -17.6550   -20.0250    -1.6440 h1         1 O0O       0.056450
     52 H27        -17.6550   -18.5630     0.0810 hn         1 O0O       0.490000
     53 H28        -15.7870   -21.3770     1.6280 ha         1 O0O       0.122000
     54 H23        -13.9420   -16.3590    -0.0610 hn         1 O0O       0.405000
     55 N3         -17.0220   -19.2670     0.4220 nu         1 O0O      -0.994200
     56 N1         -20.3430   -24.3490    -1.8480 ns         1 O0O      -0.491900
@<TRIPOS>BOND
     1     1     2 ar  
     2     1     3 ar  
     3     1    26 1   
     4     2     6 ar  
     5     2    24 1   
     6     3    22 ar  
     7     3    27 1   
     8     4     5 1   
     9     4    11 1   
    10     4    28 1   
    11     4    29 1   
    12     5    25 1   
    13     5    30 1   
    14     5    31 1   
    15     6    23 ar  
    16     6    32 1   
    17     7     9 1   
    18     7    33 1   
    19     7    34 1   
    20     7    56 1   
    21     8    12 1   
    22     8    16 1   
    23     8    20 1   
    24     9    10 1   
    25     9    15 1   
    26     9    35 1   
    27    10    20 1   
    28    10    36 1   
    29    10    37 1   
    30    11    12 1   
    31    11    17 1   
    32    11    55 1   
    33    12    21 2   
    34    13    18 2   
    35    13    19 1   
    36    13    56 1   
    37    14    17 1   
    38    14    25 1   
    39    14    38 1   
    40    14    39 1   
    41    15    16 1   
    42    15    40 1   
    43    15    41 1   
    44    16    42 1   
    45    16    43 1   
    46    17    44 1   
    47    17    45 1   
    48    19    46 1   
    49    19    47 1   
    50    19    48 1   
    51    20    50 1   
    52    20    51 1   
    53    22    23 ar  
    54    22    55 1   
    55    23    53 1   
    56    25    54 1   
    57    49    56 1   
    58    52    55 1   
@<TRIPOS>SUBSTRUCTURE
     1 O0O         1 TEMP              0 ****  ****    0 ROOT
