@<TRIPOS>MOLECULE
O0Q
   32    37     1     0     0
SMALL
bcc


@<TRIPOS>ATOM
      1 CAS         12.4240    29.1070   -67.2940 cc         1 O0Q       0.258200
      2 CAT         11.0970    29.3830   -67.4860 cd         1 O0Q      -0.249600
      3 CAX          9.0680    27.9220   -67.2340 c3         1 O0Q       0.021300
      4 CAZ          8.5150    28.0600   -65.8150 c3         1 O0Q       0.088000
      5 CBB          6.1070    28.7180   -65.6500 c          1 O0Q       0.718100
      6 CBD          6.4940    30.1470   -65.4870 cy         1 O0Q      -0.194000
      7 CBE          5.4550    31.2880   -65.3480 cy         1 O0Q      -0.066700
      8 CBF          6.2690    32.1580   -66.3460 cy         1 O0Q      -0.091700
      9 CBG          7.3210    31.0240   -66.4860 cy         1 O0Q      -0.066700
     10 CBH          7.0790    32.7630   -65.1630 cy         1 O0Q      -0.086700
     11 CBI          6.2640    31.8900   -64.1650 cy         1 O0Q      -0.091700
     12 CBJ          8.1300    31.6230   -65.3000 cy         1 O0Q      -0.091700
     13 CBK          7.3150    30.7550   -64.2980 cy         1 O0Q      -0.066700
     14 NAU         10.4860    28.2070   -67.2620 na         1 O0Q       0.100400
     15 NAV         12.5380    27.8040   -66.9630 nc         1 O0Q      -0.354000
     16 NAW         11.3650    27.2720   -66.9420 nd         1 O0Q      -0.205800
     17 NBA          7.0990    27.8110   -65.7720 ns         1 O0Q      -0.575900
     18 OBC          4.9300    28.3800   -65.6560 o          1 O0Q      -0.588100
     19 H1          13.2770    29.7600   -67.3820 h4         1 O0Q       0.051100
     20 H2          10.5710    30.2800   -67.7680 h4         1 O0Q       0.185000
     21 H3           8.5700    28.6080   -67.9170 h1         1 O0Q       0.075200
     22 H4           8.9160    26.9120   -67.6110 h1         1 O0Q       0.075200
     23 H5           9.0250    27.3500   -65.1610 h1         1 O0Q       0.069200
     24 H6           8.7410    29.0520   -65.4270 h1         1 O0Q       0.069200
     25 H7           4.3780    31.1430   -65.3680 hc         1 O0Q       0.100700
     26 H8           5.8460    32.7180   -67.1770 hc         1 O0Q       0.098700
     27 H9           7.7340    30.6750   -67.4300 hc         1 O0Q       0.100700
     28 H10          7.3130    33.8170   -65.0310 hc         1 O0Q       0.098700
     29 H11          5.8390    32.2350   -63.2250 hc         1 O0Q       0.098700
     30 H12          9.2090    31.7560   -65.2790 hc         1 O0Q       0.098700
     31 H13          7.7310    30.1780   -63.4750 hc         1 O0Q       0.100700
     32 H14          6.8070    26.8490   -65.8660 hn         1 O0Q       0.320500
@<TRIPOS>BOND
     1     1     2 2   
     2     1    15 1   
     3     1    19 1   
     4     2    14 1   
     5     2    20 1   
     6     3     4 1   
     7     3    14 1   
     8     3    21 1   
     9     3    22 1   
    10     4    17 1   
    11     4    23 1   
    12     4    24 1   
    13     5     6 1   
    14     5    17 1   
    15     5    18 2   
    16     6     7 1   
    17     6     9 1   
    18     6    13 1   
    19     7     8 1   
    20     7    11 1   
    21     7    25 1   
    22     8     9 1   
    23     8    10 1   
    24     8    26 1   
    25     9    12 1   
    26     9    27 1   
    27    10    11 1   
    28    10    12 1   
    29    10    28 1   
    30    11    13 1   
    31    11    29 1   
    32    12    13 1   
    33    12    30 1   
    34    13    31 1   
    35    14    16 1   
    36    15    16 2   
    37    17    32 1   
@<TRIPOS>SUBSTRUCTURE
     1 O0Q         1 TEMP              0 ****  ****    0 ROOT
