@<TRIPOS>MOLECULE
O0Q
   32    37     1     0     0
SMALL
No Charge or Current Charge


@<TRIPOS>ATOM
      1 CAS         12.4070    29.1890   -67.3570 cc         1 O0Q       0.192900
      2 CAT         11.0710    29.4450   -67.3520 cd         1 O0Q      -0.217000
      3 CAX          9.0760    27.8640   -67.1780 c3         1 O0Q       0.050600
      4 CAZ          8.5080    27.9860   -65.7520 c3         1 O0Q       0.088000
      5 CBB          6.0570    28.7770   -65.6550 c          1 O0Q       0.651100
      6 CBD          6.5500    30.2680   -65.4900 cy         1 O0Q      -0.194000
      7 CBE          5.4260    31.3120   -65.3890 cy         1 O0Q      -0.066700
      8 CBF          6.2920    32.1800   -66.4010 cy         1 O0Q      -0.091700
      9 CBG          7.3550    31.0070   -66.5510 cy         1 O0Q      -0.066700
     10 CBH          7.1120    32.7840   -65.1850 cy         1 O0Q      -0.086700
     11 CBI          6.2460    31.9230   -64.1720 cy         1 O0Q      -0.091700
     12 CBJ          8.1630    31.6020   -65.3010 cy         1 O0Q      -0.091700
     13 CBK          7.3060    30.7420   -64.2530 cy         1 O0Q      -0.066700
     14 NAU         10.5050    28.1960   -67.2440 na         1 O0Q       0.121800
     15 NAV         12.6340    27.8460   -67.2560 nc         1 O0Q      -0.354000
     16 NAW         11.4790    27.2330   -67.1850 nd         1 O0Q      -0.205800
     17 NBA          7.0460    27.8110   -65.7160 ns         1 O0Q      -0.508900
     18 OBC          4.9170    28.3460   -65.7220 o          1 O0Q      -0.588100
     19 H1          13.2310    29.8860   -67.4280 h4         1 O0Q       0.051100
     20 H2          10.5130    30.3700   -67.4130 h4         1 O0Q       0.167000
     21 H3           8.5350    28.5340   -67.8540 h1         1 O0Q       0.075200
     22 H4           8.9310    26.8390   -67.5420 h1         1 O0Q       0.075200
     23 H5           8.9630    27.2080   -65.1240 h1         1 O0Q       0.069200
     24 H6           8.8040    28.9480   -65.3240 h1         1 O0Q       0.069200
     25 H7           4.3490    31.1130   -65.4350 hc         1 O0Q       0.100700
     26 H8           5.8830    32.7710   -67.2290 hc         1 O0Q       0.098700
     27 H9           7.7640    30.5960   -67.4800 hc         1 O0Q       0.100700
     28 H10          7.3660    33.8430   -65.0580 hc         1 O0Q       0.098700
     29 H11          5.8030    32.3100   -63.2470 hc         1 O0Q       0.098700
     30 H12          9.2500    31.7380   -65.2610 hc         1 O0Q       0.098700
     31 H13          7.6820    30.1120   -63.4380 hc         1 O0Q       0.100700
     32 H14          6.6900    26.8660   -65.7900 hn         1 O0Q       0.320500
@<TRIPOS>BOND
     1     1     2 2   
     2     1    15 1   
     3     1    19 1   
     4     2    14 1   
     5     2    20 1   
     6     3     4 1   
     7     3    14 1   
     8     3    21 1   
     9     3    22 1   
    10     4    17 1   
    11     4    23 1   
    12     4    24 1   
    13     5     6 1   
    14     5    17 1   
    15     5    18 2   
    16     6     7 1   
    17     6     9 1   
    18     6    13 1   
    19     7     8 1   
    20     7    11 1   
    21     7    25 1   
    22     8     9 1   
    23     8    10 1   
    24     8    26 1   
    25     9    12 1   
    26     9    27 1   
    27    10    11 1   
    28    10    12 1   
    29    10    28 1   
    30    11    13 1   
    31    11    29 1   
    32    12    13 1   
    33    12    30 1   
    34    13    31 1   
    35    14    16 1   
    36    15    16 2   
    37    17    32 1   
@<TRIPOS>SUBSTRUCTURE
     1 O0Q         1 TEMP              0 ****  ****    0 ROOT
