@<TRIPOS>MOLECULE
O0R
   35    37     1     0     0
SMALL
abcg2


@<TRIPOS>ATOM
      1 N1           5.9400    -0.2790    17.3800 nb         1 O0R      -0.654000
      2 C4          11.1620    -1.1210    22.1860 ca         1 O0R      -0.061300
      3 C5           9.9600    -1.7060    21.5020 c3         1 O0R      -0.111100
      4 C6           9.1240    -0.6690    20.7540 c          1 O0R       0.594100
      5 C7           7.0180    -0.3990    19.5260 ca         1 O0R      -0.096000
      6 C8           6.7690    -0.8680    18.2390 ca         1 O0R       0.320900
      7 C10          5.5220     1.3830    19.0580 ca         1 O0R      -0.160000
      8 C13          6.6400     2.7460    21.6310 cx         1 O0R      -0.113900
      9 C15         12.3710    -1.0020    21.5020 ca         1 O0R      -0.081000
     10 O            9.5030     0.4720    20.5340 o          1 O0R      -0.560100
     11 C3          11.0800    -0.6740    23.5040 ca         1 O0R      -0.097000
     12 C2          12.1870    -0.1140    24.1310 ca         1 O0R      -0.101000
     13 C1          13.3950     0.0090    23.4530 ca         1 O0R      -0.096000
     14 C           13.4660    -0.4410    22.1430 ca         1 O0R       0.127000
     15 CL          14.9820    -0.3020    21.2710 cl         1 O0R      -0.213000
     16 N            7.9110    -1.1350    20.3490 ns         1 O0R      -0.171000
     17 C11          6.3670     0.7570    19.9800 ca         1 O0R       0.020700
     18 C12          6.5480     1.2580    21.3560 cx         1 O0R      -0.094400
     19 C14          5.4290     1.9900    22.0700 cx         1 O0R      -0.113900
     20 C9           5.3390     0.8430    17.7970 ca         1 O0R       0.330900
     21 H1           9.3160    -2.2120    22.2240 hc         1 O0R       0.066200
     22 H2          10.2640    -2.4580    20.7680 hc         1 O0R       0.066200
     23 H3           7.2720    -1.7690    17.9040 h4         1 O0R       0.017100
     24 H4           4.9900     2.2870    19.3230 ha         1 O0R       0.124000
     25 H5           7.3560     3.0640    22.3770 hc         1 O0R       0.075450
     26 H6           6.5440     3.4050    20.7780 hc         1 O0R       0.075450
     27 H7          12.4570    -1.3450    20.4800 ha         1 O0R       0.130000
     28 H8          10.1450    -0.7680    24.0420 ha         1 O0R       0.114000
     29 H9          12.1140     0.2270    25.1560 ha         1 O0R       0.119000
     30 H10         14.2630     0.4400    23.9330 ha         1 O0R       0.131000
     31 H11          7.7260    -2.1210    20.4650 hn         1 O0R       0.152000
     32 H12          7.1600     0.6310    21.9850 hc         1 O0R       0.089700
     33 H13          4.5060     2.1450    21.5280 hc         1 O0R       0.075450
     34 H14          5.3090     1.7780    23.1240 hc         1 O0R       0.075450
     35 H15          4.6770     1.3300    17.0890 h4         1 O0R       0.022100
@<TRIPOS>BOND
     1     1     6 ar  
     2     1    20 ar  
     3     2     3 1   
     4     2     9 ar  
     5     2    11 ar  
     6     3     4 1   
     7     3    21 1   
     8     3    22 1   
     9     4    10 2   
    10     4    16 1   
    11     5     6 ar  
    12     5    16 1   
    13     5    17 ar  
    14     6    23 1   
    15     7    17 ar  
    16     7    20 ar  
    17     7    24 1   
    18     8    18 1   
    19     8    19 1   
    20     8    25 1   
    21     8    26 1   
    22     9    14 ar  
    23     9    27 1   
    24    11    12 ar  
    25    11    28 1   
    26    12    13 ar  
    27    12    29 1   
    28    13    14 ar  
    29    13    30 1   
    30    14    15 1   
    31    16    31 1   
    32    17    18 1   
    33    18    19 1   
    34    18    32 1   
    35    19    33 1   
    36    19    34 1   
    37    20    35 1   
@<TRIPOS>SUBSTRUCTURE
     1 O0R         1 TEMP              0 ****  ****    0 ROOT
