@<TRIPOS>MOLECULE
O0R
   35    37     1     0     0
SMALL
No Charge or Current Charge


@<TRIPOS>ATOM
      1 N1           6.0130     0.9480    17.6860 nb         1 O0R      -0.654000
      2 C4          11.2150    -1.0050    21.4930 ca         1 O0R      -0.061300
      3 C5          10.1880    -1.9300    20.8490 c3         1 O0R      -0.111100
      4 C6           9.3530    -1.1630    19.8170 c          1 O0R       0.594100
      5 C7           7.0830     0.0370    19.6810 ca         1 O0R      -0.096000
      6 C8           7.0120     0.2560    18.2830 ca         1 O0R       0.320900
      7 C10          5.0170     1.2800    19.8640 ca         1 O0R      -0.160000
      8 C13          7.1360     0.9400    22.8680 cx         1 O0R      -0.113900
      9 C15         12.4660    -0.7950    20.8800 ca         1 O0R      -0.081000
     10 O            9.7640    -0.9510    18.6830 o          1 O0R      -0.560100
     11 C3          10.9180    -0.3430    22.7010 ca         1 O0R      -0.097000
     12 C2          11.8610     0.5180    23.2900 ca         1 O0R      -0.101000
     13 C1          13.1080     0.7220    22.6730 ca         1 O0R      -0.096000
     14 C           13.4080     0.0650    21.4690 ca         1 O0R       0.127000
     15 Cl          14.9660     0.3220    20.6950 cl         1 O0R      -0.213000
     16 N            8.1330    -0.7060    20.2980 ns         1 O0R      -0.171000
     17 C11          6.0540     0.5680    20.4900 ca         1 O0R       0.020700
     18 C12          6.0430     0.3790    21.9850 cx         1 O0R      -0.094400
     19 C14          5.7450     1.5220    22.9300 cx         1 O0R      -0.113900
     20 C9           5.0360     1.4490    18.4720 ca         1 O0R       0.330900
     21 H1           9.5310    -2.3300    21.6310 hc         1 O0R       0.066200
     22 H2          10.7010    -2.7570    20.3460 hc         1 O0R       0.066200
     23 H3           7.7600    -0.1410    17.6020 h4         1 O0R       0.017100
     24 H4           4.2010     1.7010    20.4440 ha         1 O0R       0.124000
     25 H5           7.4700     0.3360    23.7080 hc         1 O0R       0.075450
     26 H6           7.9130     1.5400    22.4010 hc         1 O0R       0.075450
     27 H7          12.7090    -1.2950    19.9450 ha         1 O0R       0.130000
     28 H8           9.9570    -0.4940    23.1870 ha         1 O0R       0.114000
     29 H9          11.6260     1.0260    24.2230 ha         1 O0R       0.119000
     30 H10         13.8390     1.3880    23.1250 ha         1 O0R       0.131000
     31 H11          7.9600    -0.9300    21.2690 hn         1 O0R       0.152000
     32 H12          5.6430    -0.5940    22.2650 hc         1 O0R       0.089700
     33 H13          5.5970     2.5140    22.5090 hc         1 O0R       0.075450
     34 H14          5.1430     1.3070    23.8100 hc         1 O0R       0.075450
     35 H15          4.2420     2.0000    17.9690 h4         1 O0R       0.022100
@<TRIPOS>BOND
     1     1     6 ar  
     2     1    20 ar  
     3     2     3 1   
     4     2     9 ar  
     5     2    11 ar  
     6     3     4 1   
     7     3    21 1   
     8     3    22 1   
     9     4    10 2   
    10     4    16 1   
    11     5     6 ar  
    12     5    16 1   
    13     5    17 ar  
    14     6    23 1   
    15     7    17 ar  
    16     7    20 ar  
    17     7    24 1   
    18     8    18 1   
    19     8    19 1   
    20     8    25 1   
    21     8    26 1   
    22     9    14 ar  
    23     9    27 1   
    24    11    12 ar  
    25    11    28 1   
    26    12    13 ar  
    27    12    29 1   
    28    13    14 ar  
    29    13    30 1   
    30    14    15 1   
    31    16    31 1   
    32    17    18 1   
    33    18    19 1   
    34    18    32 1   
    35    19    33 1   
    36    19    34 1   
    37    20    35 1   
@<TRIPOS>SUBSTRUCTURE
     1 O0R         1 TEMP              0 ****  ****    0 ROOT
