@<TRIPOS>MOLECULE
O0S
   28    29     1     0     0
SMALL
abcg2


@<TRIPOS>ATOM
      1 N1          -4.0060     0.8730     0.0040 nb         1 O0S      -0.207000
      2 C4           0.0850     0.6780    -1.4970 ca         1 O0S      -0.074500
      3 C5          -0.5110     0.9050    -0.2690 ca         1 O0S       0.082100
      4 C6          -2.7860     0.3710    -0.0660 ca         1 O0S       0.347300
      5 C7          -4.9840    -0.0090     0.1660 ca         1 O0S       0.141900
      6 C8          -4.7500    -1.3730     0.2490 ca         1 O0S      -0.261000
      7 C10          0.2240     0.7940     0.8960 ca         1 O0S      -0.074500
      8 C            5.8190    -0.7670    -0.1590 c3         1 O0S      -0.182100
      9 O            4.3000    -0.2060     1.5960 o          1 O0S      -0.580100
     10 C1           4.4850    -0.3390     0.3980 c          1 O0S       0.609100
     11 C11          1.5680     0.4510     0.8480 ca         1 O0S      -0.144500
     12 C2           2.1830     0.2130    -0.3830 ca         1 O0S      -0.015000
     13 C3           1.4240     0.3380    -1.5490 ca         1 O0S      -0.144500
     14 C9          -3.4280    -1.7670     0.1500 ca         1 O0S       0.141900
     15 N2          -2.4360    -0.8980    -0.0070 nb         1 O0S      -0.207000
     16 O1          -1.8320     1.3030    -0.2140 os         1 O0S      -0.340400
     17 H1          -0.4860     0.7720    -2.4120 ha         1 O0S       0.128500
     18 H2          -5.9900     0.3900     0.2290 h4         1 O0S       0.027600
     19 H3          -5.5510    -2.0840     0.3800 ha         1 O0S       0.138000
     20 H4          -0.2420     0.9790     1.8550 ha         1 O0S       0.128500
     21 H5           3.8090    -0.2890    -1.4990 hn         1 O0S       0.149000
     22 H6           5.9150    -0.6170    -1.2320 hc         1 O0S       0.064033
     23 H7           6.6160    -0.2210     0.3430 hc         1 O0S       0.064033
     24 H8           5.9660    -1.8270     0.0490 hc         1 O0S       0.064033
     25 H9           2.1200     0.3680     1.7690 ha         1 O0S       0.131500
     26 H10          1.8850     0.1620    -2.5140 ha         1 O0S       0.131500
     27 H11         -3.1510    -2.8140     0.1970 h4         1 O0S       0.027600
     28 N            3.5260    -0.1420    -0.5420 ns         1 O0S      -0.147000
@<TRIPOS>BOND
     1     1     4 ar  
     2     1     5 ar  
     3     2     3 ar  
     4     2    13 ar  
     5     2    17 1   
     6     3     7 ar  
     7     3    16 1   
     8     4    15 ar  
     9     4    16 1   
    10     5     6 ar  
    11     5    18 1   
    12     6    14 ar  
    13     6    19 1   
    14     7    11 ar  
    15     7    20 1   
    16     8    10 1   
    17     8    22 1   
    18     8    23 1   
    19     8    24 1   
    20     9    10 2   
    21    10    28 1   
    22    11    12 ar  
    23    11    25 1   
    24    12    13 ar  
    25    12    28 1   
    26    13    26 1   
    27    14    15 ar  
    28    14    27 1   
    29    21    28 1   
@<TRIPOS>SUBSTRUCTURE
     1 O0S         1 TEMP              0 ****  ****    0 ROOT
