@<TRIPOS>MOLECULE
O0S
   28    29     1     0     0
SMALL
No Charge or Current Charge


@<TRIPOS>ATOM
      1 N1          -4.0090     0.8750    -0.0440 nb         1 O0S      -0.207000
      2 C4           0.2960     0.7080    -1.9400 ca         1 O0S      -0.074500
      3 C5          -0.5340     0.6790    -0.8090 ca         1 O0S       0.082100
      4 C6          -2.8660     0.2140    -0.3360 ca         1 O0S       0.347300
      5 C7          -4.9980     0.1740     0.5430 ca         1 O0S       0.141900
      6 C8          -4.8540    -1.1910     0.8330 ca         1 O0S      -0.261000
      7 C10          0.0220     0.4200     0.4580 ca         1 O0S      -0.074500
      8 C            5.9530    -0.5640     0.1190 c3         1 O0S      -0.182100
      9 O            4.1490    -0.5670     1.7060 o          1 O0S      -0.580100
     10 C1           4.4950    -0.4040     0.5420 c          1 O0S       0.609100
     11 C11          1.4000     0.1660     0.5870 ca         1 O0S      -0.144500
     12 C2           2.2390     0.1770    -0.5510 ca         1 O0S      -0.015000
     13 C3           1.6730     0.4540    -1.8100 ca         1 O0S      -0.144500
     14 C9          -3.6400    -1.8000     0.4860 ca         1 O0S       0.141900
     15 N2          -2.6490    -1.1030    -0.1010 nb         1 O0S      -0.207000
     16 O1          -1.8770     0.9480    -0.9560 os         1 O0S      -0.340400
     17 H1          -0.1290     0.9230    -2.9170 ha         1 O0S       0.128500
     18 H2          -5.9140     0.7130     0.7800 h4         1 O0S       0.027600
     19 H3          -5.6540    -1.7550     1.3050 ha         1 O0S       0.138000
     20 H4          -0.6100     0.4190     1.3430 ha         1 O0S       0.128500
     21 H5           4.1000     0.0170    -1.3960 hn         1 O0S       0.149000
     22 H6           6.2830     0.3550    -0.3790 hc         1 O0S       0.064033
     23 H7           6.6090    -0.8300     0.9560 hc         1 O0S       0.064033
     24 H8           6.0110    -1.3010    -0.6900 hc         1 O0S       0.064033
     25 H9           1.7930    -0.0310     1.5790 ha         1 O0S       0.131500
     26 H10          2.3030     0.4740    -2.6980 ha         1 O0S       0.131500
     27 H11         -3.4570    -2.8570     0.6760 h4         1 O0S       0.027600
     28 N            3.6390    -0.0690    -0.4990 ns         1 O0S      -0.147000
@<TRIPOS>BOND
     1     1     4 ar  
     2     1     5 ar  
     3     2     3 ar  
     4     2    13 ar  
     5     2    17 1   
     6     3     7 ar  
     7     3    16 1   
     8     4    15 ar  
     9     4    16 1   
    10     5     6 ar  
    11     5    18 1   
    12     6    14 ar  
    13     6    19 1   
    14     7    11 ar  
    15     7    20 1   
    16     8    10 1   
    17     8    22 1   
    18     8    23 1   
    19     8    24 1   
    20     9    10 2   
    21    10    28 1   
    22    11    12 ar  
    23    11    25 1   
    24    12    13 ar  
    25    12    28 1   
    26    13    26 1   
    27    14    15 ar  
    28    14    27 1   
    29    21    28 1   
@<TRIPOS>SUBSTRUCTURE
     1 O0S         1 TEMP              0 ****  ****    0 ROOT
