@<TRIPOS>MOLECULE
O0U
   46    49     1     0     0
SMALL
abcg2


@<TRIPOS>ATOM
      1 N            5.3770    30.7300   -19.2750 no         1 O0U       0.676200
      2 N3          -1.6390    36.9920   -22.4660 nc         1 O0U      -0.570100
      3 C4           1.8680    29.9610   -21.4640 ca         1 O0U       0.191000
      4 C5           2.7060    28.9050   -21.1200 ca         1 O0U      -0.119000
      5 C6           3.8660    29.1520   -20.4060 ca         1 O0U      -0.022000
      6 C8           0.0440    34.3280   -20.4820 ca         1 O0U      -0.043000
      7 C10         -1.1050    36.1320   -21.5110 ca         1 O0U       0.089400
      8 C13         -1.0550    36.0010   -19.0730 ca         1 O0U      -0.060000
      9 C15         -2.9610    39.0820   -22.2900 ca         1 O0U      -0.134900
     10 C17         -3.7850    40.3710   -24.1570 ca         1 O0U      -0.121000
     11 C20         -3.5060    40.0290   -21.4160 ca         1 O0U      -0.061500
     12 C22         -6.5990    42.1780   -23.9910 c3         1 O0U      -0.087100
     13 O            5.6190    31.8900   -18.9670 o          1 O0U      -0.387500
     14 O2           6.0940    29.7840   -18.9770 o          1 O0U      -0.387500
     15 C1           4.1590    30.4580   -20.0410 ca         1 O0U      -0.176200
     16 C2           3.3290    31.5180   -20.3740 ca         1 O0U      -0.023000
     17 C3           2.1700    31.2770   -21.1010 ca         1 O0U      -0.157600
     18 O3           1.1300    32.7000   -22.7030 o          1 O0U      -0.546100
     19 N2           0.8160    33.1490   -20.4760 ns         1 O0U      -0.138000
     20 C9          -0.3550    34.9680   -21.6560 ca         1 O0U      -0.070000
     21 C11         -2.2410    37.9250   -21.7890 cd         1 O0U       0.607200
     22 O4          -2.1630    37.7680   -20.4240 os         1 O0U      -0.289700
     23 C12         -1.4340    36.6200   -20.2470 ca         1 O0U       0.009100
     24 C14         -0.3060    34.8400   -19.2150 ca         1 O0U      -0.144000
     25 C16         -3.1070    39.2670   -23.6700 ca         1 O0U      -0.061500
     26 C18         -4.3330    41.3240   -23.2910 ca         1 O0U      -0.050300
     27 C19         -4.1810    41.1320   -21.9170 ca         1 O0U      -0.121000
     28 H2           2.4440    27.8960   -21.4040 ha         1 O0U       0.149000
     29 H3           4.5270    28.3440   -20.1330 ha         1 O0U       0.161000
     30 H4          -1.3170    36.3890   -18.0990 ha         1 O0U       0.137000
     31 H5          -3.8900    40.5040   -25.2270 ha         1 O0U       0.118000
     32 H6          -3.3960    39.9040   -20.3480 ha         1 O0U       0.132500
     33 H7          -4.6930    42.7940   -24.7930 hc         1 O0U       0.049200
     34 H8          -4.9930    43.3470   -23.1490 hc         1 O0U       0.049200
     35 H9          -7.1380    43.0430   -24.3820 hc         1 O0U       0.037033
     36 H10         -6.7430    41.3430   -24.6800 hc         1 O0U       0.037033
     37 H11         -7.0430    41.9030   -23.0310 hc         1 O0U       0.037033
     38 H12          3.5870    32.5230   -20.0750 ha         1 O0U       0.162000
     39 H13          1.0300    32.7830   -19.5590 hn         1 O0U       0.155000
     40 H14         -0.0940    34.5790   -22.6250 ha         1 O0U       0.169000
     41 H15          0.0230    34.3120   -18.3290 ha         1 O0U       0.116000
     42 H16         -2.6850    38.5410   -24.3520 ha         1 O0U       0.132500
     43 H17         -4.5940    41.8600   -21.2290 ha         1 O0U       0.118000
     44 CL1          0.4030    29.5990   -22.3220 cl         1 O0U      -0.147000
     45 C7           1.3100    32.4410   -21.5210 c          1 O0U       0.621700
     46 C21         -5.1070    42.4970   -23.8270 c3         1 O0U      -0.038100
@<TRIPOS>BOND
     1     1    13 1   
     2     1    14 1   
     3     1    15 1   
     4     2     7 1   
     5     2    21 2   
     6     3     4 ar  
     7     3    17 ar  
     8     3    44 1   
     9     4     5 ar  
    10     4    28 1   
    11     5    15 ar  
    12     5    29 1   
    13     6    19 1   
    14     6    20 ar  
    15     6    24 ar  
    16     7    20 ar  
    17     7    23 ar  
    18     8    23 ar  
    19     8    24 ar  
    20     8    30 1   
    21     9    11 ar  
    22     9    21 1   
    23     9    25 ar  
    24    10    25 ar  
    25    10    26 ar  
    26    10    31 1   
    27    11    27 ar  
    28    11    32 1   
    29    12    35 1   
    30    12    36 1   
    31    12    37 1   
    32    12    46 1   
    33    15    16 ar  
    34    16    17 ar  
    35    16    38 1   
    36    17    45 1   
    37    18    45 2   
    38    19    39 1   
    39    19    45 1   
    40    20    40 1   
    41    21    22 1   
    42    22    23 1   
    43    24    41 1   
    44    25    42 1   
    45    26    27 ar  
    46    26    46 1   
    47    27    43 1   
    48    33    46 1   
    49    34    46 1   
@<TRIPOS>SUBSTRUCTURE
     1 O0U         1 TEMP              0 ****  ****    0 ROOT
