@<TRIPOS>MOLECULE
O0U
   46    49     1     0     0
SMALL
No Charge or Current Charge


@<TRIPOS>ATOM
      1 N            4.7600    30.3050   -18.4600 no         1 O0U       0.676200
      2 N3          -1.6870    36.9660   -22.5750 nc         1 O0U      -0.570100
      3 C4           2.1960    29.9670   -21.9310 ca         1 O0U       0.191000
      4 C5           2.9850    28.8820   -21.5160 ca         1 O0U      -0.119000
      5 C6           3.8170    28.9830   -20.3930 ca         1 O0U      -0.022000
      6 C8           0.3150    34.4710   -20.5780 ca         1 O0U      -0.043000
      7 C10         -1.0080    36.2450   -21.5890 ca         1 O0U       0.089400
      8 C13         -0.4960    36.3490   -19.2070 ca         1 O0U      -0.060000
      9 C15         -2.9550    39.1380   -22.3540 ca         1 O0U      -0.134900
     10 C17         -4.0950    40.2740   -24.1980 ca         1 O0U      -0.121000
     11 C20         -3.3750    40.1730   -21.4880 ca         1 O0U      -0.061500
     12 C22         -6.8570    42.1740   -23.7580 c3         1 O0U      -0.087100
     13 O            4.7640    31.3730   -17.8350 o          1 O0U      -0.387500
     14 O2           5.4490    29.3260   -18.1460 o          1 O0U      -0.387500
     15 C1           3.8680    30.1880   -19.6600 ca         1 O0U      -0.176200
     16 C2           3.0740    31.2830   -20.0750 ca         1 O0U      -0.023000
     17 C3           2.2290    31.1900   -21.2130 ca         1 O0U      -0.157600
     18 O3           1.1220    32.6070   -22.8090 o          1 O0U      -0.546100
     19 N2           1.0460    33.2500   -20.6040 ns         1 O0U      -0.138000
     20 C9          -0.3080    35.0370   -21.7250 ca         1 O0U      -0.070000
     21 C11         -2.1440    38.0090   -21.8500 cd         1 O0U       0.607200
     22 O4          -1.8030    37.9780   -20.5230 os         1 O0U      -0.289700
     23 C12         -1.0840    36.8580   -20.3650 ca         1 O0U       0.009100
     24 C14          0.2110    35.1350   -19.3280 ca         1 O0U      -0.144000
     25 C16         -3.3250    39.2020   -23.7160 ca         1 O0U      -0.061500
     26 C18         -4.5090    41.3020   -23.3320 ca         1 O0U      -0.050300
     27 C19         -4.1450    41.2430   -21.9750 ca         1 O0U      -0.121000
     28 H2           2.9430    27.9470   -22.0690 ha         1 O0U       0.149000
     29 H3           4.4150    28.1210   -20.0990 ha         1 O0U       0.161000
     30 H4          -0.5820    36.8680   -18.2540 ha         1 O0U       0.137000
     31 H5          -4.3730    40.3040   -25.2500 ha         1 O0U       0.118000
     32 H6          -3.1080    40.1540   -20.4330 ha         1 O0U       0.132500
     33 H7          -5.0910    42.6720   -24.9010 hc         1 O0U       0.049200
     34 H8          -5.1220    43.3750   -23.2950 hc         1 O0U       0.049200
     35 H9          -7.4340    43.0240   -24.1420 hc         1 O0U       0.037033
     36 H10         -7.1210    41.2850   -24.3450 hc         1 O0U       0.037033
     37 H11         -7.1520    42.0000   -22.7160 hc         1 O0U       0.037033
     38 H12          3.1370    32.2190   -19.5210 ha         1 O0U       0.162000
     39 H13          1.3490    32.9420   -19.6900 hn         1 O0U       0.155000
     40 H14         -0.2680    34.5690   -22.7030 ha         1 O0U       0.169000
     41 H15          0.6820    34.7080   -18.4450 ha         1 O0U       0.116000
     42 H16         -3.0170    38.4190   -24.4070 ha         1 O0U       0.132500
     43 H17         -4.4610    42.0290   -21.2920 ha         1 O0U       0.118000
     44 Cl1          1.1420    29.6930   -23.3210 cl         1 O0U      -0.147000
     45 C7           1.4010    32.3870   -21.6370 c          1 O0U       0.621700
     46 C21         -5.3470    42.4600   -23.8550 c3         1 O0U      -0.038100
@<TRIPOS>BOND
     1     1    13 1   
     2     1    14 1   
     3     1    15 1   
     4     2     7 1   
     5     2    21 2   
     6     3     4 ar  
     7     3    17 ar  
     8     3    44 1   
     9     4     5 ar  
    10     4    28 1   
    11     5    15 ar  
    12     5    29 1   
    13     6    19 1   
    14     6    20 ar  
    15     6    24 ar  
    16     7    20 ar  
    17     7    23 ar  
    18     8    23 ar  
    19     8    24 ar  
    20     8    30 1   
    21     9    11 ar  
    22     9    21 1   
    23     9    25 ar  
    24    10    25 ar  
    25    10    26 ar  
    26    10    31 1   
    27    11    27 ar  
    28    11    32 1   
    29    12    35 1   
    30    12    36 1   
    31    12    37 1   
    32    12    46 1   
    33    15    16 ar  
    34    16    17 ar  
    35    16    38 1   
    36    17    45 1   
    37    18    45 2   
    38    19    39 1   
    39    19    45 1   
    40    20    40 1   
    41    21    22 1   
    42    22    23 1   
    43    24    41 1   
    44    25    42 1   
    45    26    27 ar  
    46    26    46 1   
    47    27    43 1   
    48    33    46 1   
    49    34    46 1   
@<TRIPOS>SUBSTRUCTURE
     1 O0U         1 TEMP              0 ****  ****    0 ROOT
