@<TRIPOS>MOLECULE
O0W
   49    53     1     0     0
SMALL
bcc


@<TRIPOS>ATOM
      1 C2          37.4060    -4.4230    14.7390 cc         1 O0W      -0.149100
      2 C3          37.9460    -3.8390    13.5970 ca         1 O0W      -0.144000
      3 C11         38.2310     0.0510    11.5980 cc         1 O0W       0.029600
      4 C13         37.9520     1.3330     9.5500 c          1 O0W       0.737100
      5 C14         38.0360     0.0680     8.8840 cc         1 O0W      -0.325900
      6 C15         38.2060    -1.1010     9.5850 cd         1 O0W       0.388500
      7 C16         40.7460    -5.5190    11.5760 c3         1 O0W      -0.037800
      8 C17         37.8640    -6.5380    15.9890 c6         1 O0W       0.052000
      9 C18         38.3500    -5.9770    17.3210 c6         1 O0W      -0.129900
     10 C19         38.1560    -7.0240    18.4190 c6         1 O0W       0.150800
     11 C21         36.3060    -8.0180    17.2440 c6         1 O0W       0.150800
     12 C22         36.4180    -7.0080    16.1000 c6         1 O0W      -0.129900
     13 C25         37.9530    -0.3000     7.5050 cc         1 O0W      -0.199300
     14 C26         38.0780    -1.6420     7.4830 cd         1 O0W       0.217600
     15 N1          38.0520    -5.5830    14.9040 na         1 O0W       0.180800
     16 C4          38.9260    -4.7710    13.1690 ca         1 O0W      -0.065000
     17 N5          38.9750    -5.8280    13.9820 nc         1 O0W      -0.288400
     18 C6          37.7180    -2.6490    12.8750 ca         1 O0W      -0.073000
     19 C7          38.4800    -2.4150    11.7580 ca         1 O0W      -0.038800
     20 C8          39.4650    -3.3660    11.3410 ca         1 O0W      -0.107000
     21 C9          39.7100    -4.5330    12.0100 ca         1 O0W      -0.043300
     22 C10         38.3130    -1.1680    10.9920 cd         1 O0W      -0.213000
     23 N12         38.0570     1.2290    10.9320 n          1 O0W      -0.351000
     24 N20         36.7980    -7.5280    18.5190 n7         1 O0W      -0.791200
     25 O27         38.2290    -2.1420     8.7440 os         1 O0W      -0.313800
     26 H1          36.6370    -4.0870    15.4160 h4         1 O0W       0.174000
     27 H2          38.3180     0.1370    12.6710 h4         1 O0W       0.154000
     28 H3          41.5220    -5.6360    12.3350 hc         1 O0W       0.045367
     29 H4          40.3090    -6.5060    11.4180 hc         1 O0W       0.045367
     30 H5          41.2240    -5.2070    10.6490 hc         1 O0W       0.045367
     31 H6          38.4890    -7.3900    15.7110 h1         1 O0W       0.094700
     32 H7          39.4030    -5.6940    17.2480 hc         1 O0W       0.057950
     33 H8          37.7850    -5.0740    17.5750 hc         1 O0W       0.057950
     34 H9          38.8250    -7.8710    18.2300 h1         1 O0W       0.059950
     35 H10         38.4500    -6.6060    19.3830 h1         1 O0W       0.059950
     36 H11         35.2660    -8.3280    17.3620 h1         1 O0W       0.059950
     37 H12         36.8710    -8.9180    16.9800 h1         1 O0W       0.059950
     38 H13         35.7520    -6.1620    16.2970 hc         1 O0W       0.057950
     39 H14         36.0960    -7.4650    15.1620 hc         1 O0W       0.057950
     40 H15         38.0690     2.2480    12.7480 h1         1 O0W       0.053700
     41 H16         38.7920     3.1430    11.4070 h1         1 O0W       0.053700
     42 H17         37.0350     2.9720    11.5120 h1         1 O0W       0.053700
     43 H18         37.8180     0.3470     6.6540 ha         1 O0W       0.174000
     44 H19         38.0820    -2.3650     6.6850 h4         1 O0W       0.056100
     45 H20         36.9510    -1.9500    13.1850 ha         1 O0W       0.130000
     46 H21         40.0600    -3.1430    10.4630 ha         1 O0W       0.136000
     47 H22         36.1920    -6.7850    18.8470 hn         1 O0W       0.351800
     48 O23         37.8010     2.4210     9.0060 o          1 O0W      -0.623500
     49 C24         37.9840     2.4720    11.6890 c3         1 O0W       0.079300
@<TRIPOS>BOND
     1     1     2 2   
     2     1    15 1   
     3     1    26 1   
     4     2    16 ar  
     5     2    18 ar  
     6     3    22 2   
     7     3    23 1   
     8     3    27 1   
     9     4     5 1   
    10     4    23 1   
    11     4    48 2   
    12     5     6 2   
    13     5    13 1   
    14     6    22 1   
    15     6    25 1   
    16     7    21 1   
    17     7    28 1   
    18     7    29 1   
    19     7    30 1   
    20     8     9 1   
    21     8    12 1   
    22     8    15 1   
    23     8    31 1   
    24     9    10 1   
    25     9    32 1   
    26     9    33 1   
    27    10    24 1   
    28    10    34 1   
    29    10    35 1   
    30    11    12 1   
    31    11    24 1   
    32    11    36 1   
    33    11    37 1   
    34    12    38 1   
    35    12    39 1   
    36    13    14 2   
    37    13    43 1   
    38    14    25 1   
    39    14    44 1   
    40    15    17 1   
    41    16    17 2   
    42    16    21 ar  
    43    18    19 ar  
    44    18    45 1   
    45    19    20 ar  
    46    19    22 1   
    47    20    21 ar  
    48    20    46 1   
    49    23    49 1   
    50    24    47 1   
    51    40    49 1   
    52    41    49 1   
    53    42    49 1   
@<TRIPOS>SUBSTRUCTURE
     1 O0W         1 TEMP              0 ****  ****    0 ROOT
