@<TRIPOS>MOLECULE
O0W
   49    53     1     0     0
SMALL
No Charge or Current Charge


@<TRIPOS>ATOM
      1 C2          37.6740    -4.4070    14.7870 cc         1 O0W      -0.199100
      2 C3          38.1660    -3.9220    13.5470 ca         1 O0W      -0.144000
      3 C11         37.9990    -0.0310    11.6250 cc         1 O0W      -0.020400
      4 C13         37.8940     1.4030     9.6170 c          1 O0W       0.594600
      5 C14         38.2570     0.1830     8.9030 cc         1 O0W      -0.260600
      6 C15         38.4890    -1.0090     9.5050 cd         1 O0W       0.278800
      7 C16         40.4240    -5.8470    11.1760 c3         1 O0W      -0.037800
      8 C17         37.9340    -6.6000    16.0790 c6         1 O0W       0.081300
      9 C18         38.4800    -6.0030    17.4040 c6         1 O0W      -0.129900
     10 C19         38.1880    -6.9510    18.5900 c6         1 O0W       0.150800
     11 C21         36.1930    -7.8630    17.4440 c6         1 O0W       0.150800
     12 C22         36.4280    -6.9420    16.2260 c6         1 O0W      -0.129900
     13 C25         38.4220    -0.0280     7.5190 cc         1 O0W      -0.116000
     14 C26         38.7300    -1.3560     7.3770 cd         1 O0W       0.107900
     15 N1          38.1800    -5.6960    14.9310 na         1 O0W       0.151500
     16 C4          38.9260    -4.9300    13.0210 ca         1 O0W      -0.065000
     17 N5          38.9750    -6.0630    13.8390 nc         1 O0W      -0.288400
     18 C6          37.9680    -2.6920    12.9100 ca         1 O0W      -0.055000
     19 C7          38.5780    -2.4730    11.6490 ca         1 O0W      -0.038800
     20 C8          39.3780    -3.5170    11.1040 ca         1 O0W      -0.089000
     21 C9          39.5570    -4.7490    11.7780 ca         1 O0W      -0.043300
     22 C10         38.3950    -1.1770    10.9380 cd         1 O0W      -0.213000
     23 N12         37.7750     1.2160    11.0110 n          1 O0W      -0.284000
     24 N20         36.7380    -7.2490    18.6800 n7         1 O0W      -0.846400
     25 O27         38.7660    -2.0030     8.5960 os         1 O0W      -0.225000
     26 H1          37.0370    -3.9660    15.5440 h4         1 O0W       0.224000
     27 H2          37.8630     0.0270    12.6990 h4         1 O0W       0.204000
     28 H3          41.2800    -6.0690    11.8240 hc         1 O0W       0.045367
     29 H4          39.8510    -6.7730    11.0470 hc         1 O0W       0.045367
     30 H5          40.8180    -5.5630    10.1920 hc         1 O0W       0.045367
     31 H6          38.4760    -7.5360    15.8810 h1         1 O0W       0.094700
     32 H7          39.5620    -5.8360    17.3230 hc         1 O0W       0.057950
     33 H8          38.0240    -5.0230    17.5990 hc         1 O0W       0.057950
     34 H9          38.7510    -7.8880    18.4600 h1         1 O0W       0.059950
     35 H10         38.5330    -6.4880    19.5270 h1         1 O0W       0.059950
     36 H11         35.1150    -8.0510    17.5650 h1         1 O0W       0.059950
     37 H12         36.6790    -8.8360    17.2690 h1         1 O0W       0.059950
     38 H13         35.8360    -6.0240    16.3420 hc         1 O0W       0.057950
     39 H14         36.0640    -7.4360    15.3140 hc         1 O0W       0.057950
     40 H15         37.3320     2.1310    12.8900 h1         1 O0W       0.053700
     41 H16         38.1410     3.1860    11.7020 h1         1 O0W       0.053700
     42 H17         36.4150     2.7670    11.5000 h1         1 O0W       0.053700
     43 H18         38.3140     0.7130     6.7330 ha         1 O0W       0.156000
     44 H19         38.9320    -1.9450     6.4910 h4         1 O0W       0.056100
     45 H20         37.3320    -1.9490    13.3800 ha         1 O0W       0.112000
     46 H21         39.9050    -3.3730    10.1690 ha         1 O0W       0.118000
     47 H22         36.2360    -6.3690    18.8540 hn         1 O0W       0.407000
     48 O23         37.7000     2.4770     9.0610 o          1 O0W      -0.548000
     49 C24         37.3930     2.3920    11.8270 c3         1 O0W       0.079300
@<TRIPOS>BOND
     1     1     2 2   
     2     1    15 1   
     3     1    26 1   
     4     2    16 ar  
     5     2    18 ar  
     6     3    22 2   
     7     3    23 1   
     8     3    27 1   
     9     4     5 1   
    10     4    23 1   
    11     4    48 2   
    12     5     6 2   
    13     5    13 1   
    14     6    22 1   
    15     6    25 1   
    16     7    21 1   
    17     7    28 1   
    18     7    29 1   
    19     7    30 1   
    20     8     9 1   
    21     8    12 1   
    22     8    15 1   
    23     8    31 1   
    24     9    10 1   
    25     9    32 1   
    26     9    33 1   
    27    10    24 1   
    28    10    34 1   
    29    10    35 1   
    30    11    12 1   
    31    11    24 1   
    32    11    36 1   
    33    11    37 1   
    34    12    38 1   
    35    12    39 1   
    36    13    14 2   
    37    13    43 1   
    38    14    25 1   
    39    14    44 1   
    40    15    17 1   
    41    16    17 2   
    42    16    21 ar  
    43    18    19 ar  
    44    18    45 1   
    45    19    20 ar  
    46    19    22 1   
    47    20    21 ar  
    48    20    46 1   
    49    23    49 1   
    50    24    47 1   
    51    40    49 1   
    52    41    49 1   
    53    42    49 1   
@<TRIPOS>SUBSTRUCTURE
     1 O0W         1 TEMP              0 ****  ****    0 ROOT
