@<TRIPOS>MOLECULE
O0X
   33    35     1     0     0
SMALL
No Charge or Current Charge


@<TRIPOS>ATOM
      1 N1           7.4070     0.5260    17.1590 nb         1 O0X      -0.650000
      2 C4          11.0840    -0.8100    22.4380 ca         1 O0X      -0.066300
      3 C5           9.5840    -1.0080    22.6260 c3         1 O0X      -0.108100
      4 C6           8.7940    -0.0370    21.7400 c          1 O0X       0.597100
      5 C7           7.5300     0.0140    19.5350 ca         1 O0X      -0.081000
      6 C8           8.0320    -0.0340    18.2170 ca         1 O0X       0.345900
      7 C10          5.6060     1.2510    18.6680 ca         1 O0X       0.209000
      8 C13          5.6680     0.6850    21.0380 ca         1 O0X      -0.063000
      9 C15         11.7850    -1.5560    21.4690 ca         1 O0X      -0.094000
     10 O            8.6420     1.1420    22.0380 o          1 O0X      -0.564100
     11 C3          11.7820     0.1270    23.2260 ca         1 O0X      -0.085000
     12 C2          13.1640     0.3150    23.0490 ca         1 O0X      -0.099000
     13 C1          13.8570    -0.4330    22.0820 ca         1 O0X      -0.095000
     14 C           13.1660    -1.3670    21.2930 ca         1 O0X       0.126000
     15 Cl          14.0310    -2.3020    20.0810 cl         1 O0X      -0.213000
     16 N            8.3010    -0.5890    20.5670 ns         1 O0X      -0.181000
     17 C14          6.2810     0.6500    19.7660 ca         1 O0X      -0.058000
     18 C12          4.4330     1.3370    21.1740 ca         1 O0X      -0.147000
     19 C11          3.8430     1.9260    20.0470 ca         1 O0X       0.346900
     20 N2           4.4070     1.8830    18.8190 nb         1 O0X      -0.638000
     21 C9           6.2270     1.1560    17.3950 ca         1 O0X       0.384900
     22 H1           9.3170    -0.8230    23.6730 hc         1 O0X       0.065200
     23 H2           9.3230    -2.0410    22.3650 hc         1 O0X       0.065200
     24 H3           8.9820    -0.5240    18.0060 h4         1 O0X       0.032100
     25 H4           6.1170     0.2140    21.9080 ha         1 O0X       0.122000
     26 H5          11.2630    -2.2830    20.8510 ha         1 O0X       0.126000
     27 H6          11.2530     0.7130    23.9750 ha         1 O0X       0.119000
     28 H7          13.6970     1.0400    23.6600 ha         1 O0X       0.121000
     29 H8          14.9260    -0.2890    21.9420 ha         1 O0X       0.131000
     30 H9           8.5500    -1.5570    20.4070 hn         1 O0X       0.157000
     31 H10          3.9340     1.3870    22.1370 ha         1 O0X       0.127000
     32 H11          2.8850     2.4390    20.1260 h4         1 O0X       0.025100
     33 H12          5.7470     1.5980    16.5220 h4         1 O0X       0.041100
@<TRIPOS>BOND
     1     1     6 ar  
     2     1    21 ar  
     3     2     3 1   
     4     2     9 ar  
     5     2    11 ar  
     6     3     4 1   
     7     3    22 1   
     8     3    23 1   
     9     4    10 2   
    10     4    16 1   
    11     5     6 ar  
    12     5    16 1   
    13     5    17 ar  
    14     6    24 1   
    15     7    17 ar  
    16     7    20 ar  
    17     7    21 ar  
    18     8    17 ar  
    19     8    18 ar  
    20     8    25 1   
    21     9    14 ar  
    22     9    26 1   
    23    11    12 ar  
    24    11    27 1   
    25    12    13 ar  
    26    12    28 1   
    27    13    14 ar  
    28    13    29 1   
    29    14    15 1   
    30    16    30 1   
    31    18    19 ar  
    32    18    31 1   
    33    19    20 ar  
    34    19    32 1   
    35    21    33 1   
@<TRIPOS>SUBSTRUCTURE
     1 O0X         1 TEMP              0 ****  ****    0 ROOT
