@<TRIPOS>MOLECULE
O0X
   33    35     1     0     0
SMALL
abcg2


@<TRIPOS>ATOM
      1 N1           7.0570     0.6040    17.1190 nb         1 O0X      -0.650000
      2 C4          11.2250    -0.8200    22.3120 ca         1 O0X      -0.066300
      3 C5           9.7440    -1.0270    22.1520 c3         1 O0X      -0.108100
      4 C6           9.1460    -0.1730    21.0400 c          1 O0X       0.597100
      5 C7           7.3330    -0.0620    19.4110 ca         1 O0X      -0.081000
      6 C8           7.7370    -0.0360    18.1020 ca         1 O0X       0.345900
      7 C10          5.4290     1.2820    18.7540 ca         1 O0X       0.209000
      8 C13          5.6290     0.6800    21.0960 ca         1 O0X      -0.063000
      9 C15         12.1160    -1.5700    21.5440 ca         1 O0X      -0.094000
     10 O            9.5480     0.9530    20.7790 o          1 O0X      -0.564100
     11 C3          11.7260     0.1280    23.2030 ca         1 O0X      -0.085000
     12 C2          13.0970     0.3280    23.3250 ca         1 O0X      -0.099000
     13 C1          13.9900    -0.4150    22.5600 ca         1 O0X      -0.095000
     14 C           13.4790    -1.3570    21.6780 ca         1 O0X       0.126000
     15 CL          14.5880    -2.3090    20.7080 cl         1 O0X      -0.213000
     16 N            8.1030    -0.7500    20.3880 ns         1 O0X      -0.181000
     17 C14          6.1450     0.6160    19.7810 ca         1 O0X      -0.058000
     18 C12          4.4710     1.3750    21.3090 ca         1 O0X      -0.147000
     19 C11          3.8270     2.0030    20.2170 ca         1 O0X       0.346900
     20 N2           4.2770     1.9670    18.9830 nb         1 O0X      -0.638000
     21 C9           5.9490     1.2320    17.4370 ca         1 O0X       0.384900
     22 H1           9.2230    -0.7380    23.0700 hc         1 O0X       0.065200
     23 H2           9.5200    -2.0790    21.9710 hc         1 O0X       0.065200
     24 H3           8.6480    -0.5480    17.8120 h4         1 O0X       0.032100
     25 H4           6.1490     0.1890    21.9070 ha         1 O0X       0.122000
     26 H5          11.7480    -2.3140    20.8500 ha         1 O0X       0.126000
     27 H6          11.0390     0.7090    23.8050 ha         1 O0X       0.119000
     28 H7          13.4770     1.0640    24.0210 ha         1 O0X       0.121000
     29 H8          15.0570    -0.2690    22.6500 ha         1 O0X       0.131000
     30 H9           7.7940    -1.6640    20.6840 hn         1 O0X       0.157000
     31 H10          4.0390     1.4540    22.2980 ha         1 O0X       0.127000
     32 H11          2.9070     2.5530    20.3860 h4         1 O0X       0.025100
     33 H12          5.4050     1.7420    16.6480 h4         1 O0X       0.041100
@<TRIPOS>BOND
     1     1     6 ar  
     2     1    21 ar  
     3     2     3 1   
     4     2     9 ar  
     5     2    11 ar  
     6     3     4 1   
     7     3    22 1   
     8     3    23 1   
     9     4    10 2   
    10     4    16 1   
    11     5     6 ar  
    12     5    16 1   
    13     5    17 ar  
    14     6    24 1   
    15     7    17 ar  
    16     7    20 ar  
    17     7    21 ar  
    18     8    17 ar  
    19     8    18 ar  
    20     8    25 1   
    21     9    14 ar  
    22     9    26 1   
    23    11    12 ar  
    24    11    27 1   
    25    12    13 ar  
    26    12    28 1   
    27    13    14 ar  
    28    13    29 1   
    29    14    15 1   
    30    16    30 1   
    31    18    19 ar  
    32    18    31 1   
    33    19    20 ar  
    34    19    32 1   
    35    21    33 1   
@<TRIPOS>SUBSTRUCTURE
     1 O0X         1 TEMP              0 ****  ****    0 ROOT
