@<TRIPOS>MOLECULE
O0Y
   27    27     1     0     0
SMALL
abcg2


@<TRIPOS>ATOM
      1 C4          -0.1220     0.1810     0.1130 ca         1 O0Y       0.386000
      2 C5           0.2840     1.5060     0.3820 ca         1 O0Y      -0.233000
      3 C6           1.6290     1.8220     0.4640 ca         1 O0Y      -0.027000
      4 C7           2.6240     0.8720     0.2830 ca         1 O0Y      -0.264000
      5 C8           2.2320    -0.4360     0.0140 ca         1 O0Y       0.180100
      6 N           -1.4450    -0.1590     0.0320 nh         1 O0Y      -0.837400
      7 C           -1.9290    -2.4800     0.7880 c3         1 O0Y      -0.116600
      8 O            3.1270    -1.4310    -0.1720 oh         1 O0Y      -0.540100
      9 C1          -1.8660    -1.4870    -0.3650 c3         1 O0Y       0.231300
     10 C2          -2.4950     0.8090     0.2770 c3         1 O0Y       0.231300
     11 C3          -2.8530     1.6410    -0.9480 c3         1 O0Y      -0.116600
     12 C9           0.8880    -0.7800    -0.0680 ca         1 O0Y      -0.238000
     13 H1          -0.4390     2.2970     0.5130 ha         1 O0Y       0.112000
     14 H2           1.9090     2.8470     0.6690 ha         1 O0Y       0.105000
     15 H3           3.6720     1.1410     0.3530 ha         1 O0Y       0.112000
     16 H4          -2.2830    -3.4500     0.4360 hc         1 O0Y       0.041200
     17 H5          -0.9520    -2.6280     1.2480 hc         1 O0Y       0.041200
     18 H6          -2.6160    -2.1350     1.5620 hc         1 O0Y       0.041200
     19 H7           4.0240    -1.0880    -0.0940 ho         1 O0Y       0.463000
     20 H8          -2.8540    -1.3990    -0.8210 h1         1 O0Y       0.045450
     21 H9          -1.2180    -1.8650    -1.1590 h1         1 O0Y       0.045450
     22 H10         -3.3760     0.2630     0.6190 h1         1 O0Y       0.045450
     23 H11         -2.2190     1.4600     1.1090 h1         1 O0Y       0.045450
     24 H12         -1.9940     2.2040    -1.3140 hc         1 O0Y       0.041200
     25 H13         -3.2110     1.0070    -1.7600 hc         1 O0Y       0.041200
     26 H14         -3.6440     2.3530    -0.7090 hc         1 O0Y       0.041200
     27 H15          0.6490    -1.8160    -0.2640 ha         1 O0Y       0.126000
@<TRIPOS>BOND
     1     1     2 ar  
     2     1     6 1   
     3     1    12 ar  
     4     2     3 ar  
     5     2    13 1   
     6     3     4 ar  
     7     3    14 1   
     8     4     5 ar  
     9     4    15 1   
    10     5     8 1   
    11     5    12 ar  
    12     6     9 1   
    13     6    10 1   
    14     7     9 1   
    15     7    16 1   
    16     7    17 1   
    17     7    18 1   
    18     8    19 1   
    19     9    20 1   
    20     9    21 1   
    21    10    11 1   
    22    10    22 1   
    23    10    23 1   
    24    11    24 1   
    25    11    25 1   
    26    11    26 1   
    27    12    27 1   
@<TRIPOS>SUBSTRUCTURE
     1 O0Y         1 TEMP              0 ****  ****    0 ROOT
