@<TRIPOS>MOLECULE
O0Y
   27    27     1     0     0
SMALL
No Charge or Current Charge


@<TRIPOS>ATOM
      1 C4           0.0170     0.2000     0.0630 ca         1 O0Y       0.386000
      2 C5           0.4320     1.5450    -0.0170 ca         1 O0Y      -0.233000
      3 C6           1.7920     1.8870     0.0480 ca         1 O0Y      -0.027000
      4 C7           2.7560     0.8800     0.1960 ca         1 O0Y      -0.264000
      5 C8           2.3550    -0.4580     0.2770 ca         1 O0Y       0.180100
      6 N           -1.3610    -0.1410    -0.0040 nh         1 O0Y      -0.837400
      7 C           -2.1910    -2.4900     0.4610 c3         1 O0Y      -0.116600
      8 O            3.2870    -1.4370     0.4240 oh         1 O0Y      -0.540100
      9 C1          -1.8120    -1.4280    -0.5880 c3         1 O0Y       0.231300
     10 C2          -2.4100     0.7740     0.5090 c3         1 O0Y       0.231300
     11 C3          -3.1440     1.5600    -0.5940 c3         1 O0Y      -0.116600
     12 C9           1.0000    -0.7970     0.2110 ca         1 O0Y      -0.238000
     13 H1          -0.2970     2.3390    -0.1430 ha         1 O0Y       0.112000
     14 H2           2.0960     2.9300    -0.0190 ha         1 O0Y       0.105000
     15 H3           3.8090     1.1480     0.2460 ha         1 O0Y       0.112000
     16 H4          -2.4780    -3.4240    -0.0360 hc         1 O0Y       0.041200
     17 H5          -1.3480    -2.7010     1.1280 hc         1 O0Y       0.041200
     18 H6          -3.0380    -2.1540     1.0690 hc         1 O0Y       0.041200
     19 H7           4.1710    -1.0110     0.4510 ho         1 O0Y       0.463000
     20 H8          -2.6820    -1.2550    -1.2360 h1         1 O0Y       0.045450
     21 H9          -1.0300    -1.8390    -1.2410 h1         1 O0Y       0.045450
     22 H10         -3.1540     0.2010     1.0800 h1         1 O0Y       0.045450
     23 H11         -1.9720     1.4870     1.2190 h1         1 O0Y       0.045450
     24 H12         -2.4400     2.1530    -1.1880 hc         1 O0Y       0.041200
     25 H13         -3.6790     0.8810    -1.2680 hc         1 O0Y       0.041200
     26 H14         -3.8760     2.2420    -0.1470 hc         1 O0Y       0.041200
     27 H15          0.7180    -1.8410     0.2880 ha         1 O0Y       0.126000
@<TRIPOS>BOND
     1     1     2 ar  
     2     1     6 1   
     3     1    12 ar  
     4     2     3 ar  
     5     2    13 1   
     6     3     4 ar  
     7     3    14 1   
     8     4     5 ar  
     9     4    15 1   
    10     5     8 1   
    11     5    12 ar  
    12     6     9 1   
    13     6    10 1   
    14     7     9 1   
    15     7    16 1   
    16     7    17 1   
    17     7    18 1   
    18     8    19 1   
    19     9    20 1   
    20     9    21 1   
    21    10    11 1   
    22    10    22 1   
    23    10    23 1   
    24    11    24 1   
    25    11    25 1   
    26    11    26 1   
    27    12    27 1   
@<TRIPOS>SUBSTRUCTURE
     1 O0Y         1 TEMP              0 ****  ****    0 ROOT
