@<TRIPOS>MOLECULE
O0Z
   77    80     1     0     0
SMALL
No Charge or Current Charge


@<TRIPOS>ATOM
      1 C11        137.1890   113.6710    41.2020 ca         1 O0Z      -0.048200
      2 C12        137.0750   114.3930    42.3980 ca         1 O0Z      -0.127000
      3 C13        138.0820   114.2320    43.3730 ca         1 O0Z      -0.097000
      4 C14        139.1750   113.3680    43.1310 ca         1 O0Z      -0.143000
      5 C01        142.8670   104.8260    38.7610 c3         1 O0Z      -0.088100
      6 C02        141.8530   105.6390    39.5900 c3         1 O0Z      -0.074400
      7 C04        140.3990   107.7550    39.7280 c3         1 O0Z       0.159800
      8 C06        139.0570   109.8820    39.7340 c3         1 O0Z       0.104500
      9 C07        138.9530   111.2380    38.9940 c3         1 O0Z       0.010800
     10 C08        138.0520   112.2370    39.6780 cc         1 O0Z      -0.157400
     11 C09        136.8730   112.7820    39.1770 cd         1 O0Z      -0.138100
     12 C15        139.2650   112.6540    41.9180 ca         1 O0Z      -0.070000
     13 C16        138.2380   112.8250    40.9760 ca         1 O0Z      -0.097800
     14 C17        137.6430   109.2360    39.9360 c          1 O0Z       0.569100
     15 C20        136.0010   108.4760    41.7040 c3         1 O0Z       0.098000
     16 C21        135.1200   109.4020    42.5740 c3         1 O0Z      -0.090400
     17 C22        134.6060   110.7070    41.8970 c3         1 O0Z      -0.056700
     18 C23        133.8190   110.3990    40.5900 c3         1 O0Z      -0.072400
     19 C24        133.1500   111.6020    39.8860 c3         1 O0Z      -0.098400
     20 C25        131.9460   112.1700    40.6680 c3         1 O0Z       0.193800
     21 C28        133.1060   115.1940    40.3590 ca         1 O0Z      -0.122300
     22 C29        133.1080   114.9280    38.9740 ca         1 O0Z      -0.111000
     23 C30        134.0900   115.4930    38.1420 ca         1 O0Z      -0.119000
     24 C31        135.0680   116.3430    38.6850 ca         1 O0Z      -0.113000
     25 C32        135.0630   116.6270    40.0600 ca         1 O0Z      -0.119000
     26 C33        134.0870   116.0540    40.8930 ca         1 O0Z      -0.111000
     27 C34        133.4960   113.0010    42.4830 c3         1 O0Z       0.197800
     28 C35        133.8040   111.5530    42.9310 c3         1 O0Z      -0.074400
     29 N05        140.0250   108.9900    39.0140 n7         1 O0Z      -0.859400
     30 N10        136.3320   113.6870    40.1200 na         1 O0Z      -0.222700
     31 N19        137.2350   109.1250    41.2520 ns         1 O0Z      -0.495900
     32 N26        132.2520   113.1970    41.6970 n3         1 O0Z      -0.761600
     33 O18        136.9720   108.8010    39.0060 o          1 O0Z      -0.624100
     34 H1         136.2360   115.0610    42.5720 ha         1 O0Z       0.113000
     35 H2         138.0200   114.7800    44.3100 ha         1 O0Z       0.108000
     36 H3         139.9520   113.2550    43.8840 ha         1 O0Z       0.109000
     37 H4         143.1490   103.9100    39.2940 hc         1 O0Z       0.032367
     38 H5         142.4390   104.5420    37.7930 hc         1 O0Z       0.032367
     39 H6         143.7770   105.4110    38.5800 hc         1 O0Z       0.032367
     40 H7         142.2980   105.8770    40.5640 hc         1 O0Z       0.036200
     41 H8         140.9710   105.0160    39.7840 hc         1 O0Z       0.036200
     42 H9         140.9700   106.7050    37.9210 hc         1 O0Z       0.046700
     43 H10        142.2970   107.5670    38.7030 hc         1 O0Z       0.046700
     44 H11        140.8490   107.9990    40.7010 h1         1 O0Z       0.029200
     45 H12        139.5130   107.1340    39.9140 h1         1 O0Z       0.029200
     46 H13        139.4530   110.0900    40.7360 h1         1 O0Z       0.061700
     47 H14        138.5950   111.0620    37.9720 hc         1 O0Z       0.060700
     48 H15        139.9570   111.6690    38.8990 hc         1 O0Z       0.060700
     49 H16        136.3880   112.5990    38.2220 h4         1 O0Z       0.218000
     50 H17        140.1090   111.9980    41.7230 ha         1 O0Z       0.112000
     51 H18        135.4240   108.1130    40.8430 h1         1 O0Z       0.054200
     52 H19        136.2800   107.5960    42.2970 h1         1 O0Z       0.054200
     53 H20        134.2570   108.8210    42.9220 hc         1 O0Z       0.041200
     54 H21        135.6920   109.6670    43.4710 hc         1 O0Z       0.041200
     55 H22        135.4880   111.2950    41.6150 hc         1 O0Z       0.059700
     56 H23        133.0520   109.6420    40.8000 hc         1 O0Z       0.046200
     57 H24        134.5050   109.9460    39.8660 hc         1 O0Z       0.046200
     58 H25        132.7840   111.2570    38.9120 hc         1 O0Z       0.039700
     59 H26        133.8890   112.3820    39.6780 hc         1 O0Z       0.039700
     60 H27        131.2340   112.5840    39.9410 h1         1 O0Z       0.040700
     61 H28        131.4220   111.3290    41.1430 h1         1 O0Z       0.040700
     62 H29        131.9500   115.2420    42.1620 h1         1 O0Z       0.055700
     63 H30        131.0570   114.6910    40.7600 h1         1 O0Z       0.055700
     64 H31        132.3470   114.2830    38.5410 ha         1 O0Z       0.115000
     65 H32        134.0880   115.2780    37.0760 ha         1 O0Z       0.118000
     66 H33        135.8250   116.7840    38.0400 ha         1 O0Z       0.119000
     67 H34        135.8170   117.2890    40.4820 ha         1 O0Z       0.118000
     68 H35        134.0890   116.2830    41.9570 ha         1 O0Z       0.115000
     69 H36        134.3630   113.3750    41.9260 h1         1 O0Z       0.026200
     70 H37        133.4260   113.6180    43.3890 h1         1 O0Z       0.026200
     71 H38        132.8770   111.0400    43.2140 hc         1 O0Z       0.044200
     72 H39        134.4030   111.6260    43.8470 hc         1 O0Z       0.044200
     73 H40        139.5970   108.7190    38.1190 hn         1 O0Z       0.426000
     74 H42        135.4970   114.2590    40.0120 hn         1 O0Z       0.362000
     75 H43        137.8540   109.5130    41.9540 hn         1 O0Z       0.312500
     76 C27        132.0260   114.6050    41.2700 c3         1 O0Z       0.236100
     77 C03        141.4130   106.9470    38.8950 c3         1 O0Z      -0.079400
@<TRIPOS>BOND
     1     1     2 ar  
     2     1    13 ar  
     3     1    30 1   
     4     2     3 ar  
     5     2    34 1   
     6     3     4 ar  
     7     3    35 1   
     8     4    12 ar  
     9     4    36 1   
    10     5     6 1   
    11     5    37 1   
    12     5    38 1   
    13     5    39 1   
    14     6    40 1   
    15     6    41 1   
    16     6    77 1   
    17     7    29 1   
    18     7    44 1   
    19     7    45 1   
    20     7    77 1   
    21     8     9 1   
    22     8    14 1   
    23     8    29 1   
    24     8    46 1   
    25     9    10 1   
    26     9    47 1   
    27     9    48 1   
    28    10    11 2   
    29    10    13 1   
    30    11    30 1   
    31    11    49 1   
    32    12    13 ar  
    33    12    50 1   
    34    14    31 1   
    35    14    33 2   
    36    15    16 1   
    37    15    31 1   
    38    15    51 1   
    39    15    52 1   
    40    16    17 1   
    41    16    53 1   
    42    16    54 1   
    43    17    18 1   
    44    17    28 1   
    45    17    55 1   
    46    18    19 1   
    47    18    56 1   
    48    18    57 1   
    49    19    20 1   
    50    19    58 1   
    51    19    59 1   
    52    20    32 1   
    53    20    60 1   
    54    20    61 1   
    55    21    22 ar  
    56    21    26 ar  
    57    21    76 1   
    58    22    23 ar  
    59    22    64 1   
    60    23    24 ar  
    61    23    65 1   
    62    24    25 ar  
    63    24    66 1   
    64    25    26 ar  
    65    25    67 1   
    66    26    68 1   
    67    27    28 1   
    68    27    32 1   
    69    27    69 1   
    70    27    70 1   
    71    28    71 1   
    72    28    72 1   
    73    29    73 1   
    74    30    74 1   
    75    31    75 1   
    76    32    76 1   
    77    42    77 1   
    78    43    77 1   
    79    62    76 1   
    80    63    76 1   
@<TRIPOS>SUBSTRUCTURE
     1 O0Z         1 TEMP              0 ****  ****    0 ROOT
