@<TRIPOS>MOLECULE
O0Z
   77    80     1     0     0
SMALL
abcg2


@<TRIPOS>ATOM
      1 C11        137.2860   113.7450    41.1290 ca         1 O0Z      -0.048200
      2 C12        137.1980   114.5340    42.2740 ca         1 O0Z      -0.127000
      3 C13        138.2170   114.4300    43.2020 ca         1 O0Z      -0.097000
      4 C14        139.3030   113.5630    42.9960 ca         1 O0Z      -0.143000
      5 C01        142.6210   104.7500    38.9490 c3         1 O0Z      -0.088100
      6 C02        141.6370   105.6160    39.7220 c3         1 O0Z      -0.074400
      7 C04        140.3000   107.7650    39.7610 c3         1 O0Z       0.159800
      8 C06        139.1070   109.8930    39.7420 c3         1 O0Z       0.104500
      9 C07        138.9970   111.2110    38.9710 c3         1 O0Z       0.010800
     10 C08        138.1310   112.2250    39.6390 cc         1 O0Z      -0.157400
     11 C09        136.9530   112.7330    39.1730 cd         1 O0Z      -0.138100
     12 C15        139.3860   112.7830    41.8580 ca         1 O0Z      -0.070000
     13 C16        138.3650   112.8620    40.9030 ca         1 O0Z      -0.097800
     14 C17        137.7180   109.2750    39.9190 c          1 O0Z       0.569100
     15 C20        136.0770   108.4830    41.5950 c3         1 O0Z       0.098000
     16 C21        135.1890   109.3800    42.4490 c3         1 O0Z      -0.090400
     17 C22        134.6840   110.6650    41.7870 c3         1 O0Z      -0.056700
     18 C23        133.9360   110.3620    40.4910 c3         1 O0Z      -0.072400
     19 C24        133.2540   111.5500    39.8200 c3         1 O0Z      -0.098400
     20 C25        132.0530   112.0900    40.6010 c3         1 O0Z       0.193800
     21 C28        133.0040   115.1750    40.4750 ca         1 O0Z      -0.122300
     22 C29        133.0320   114.9900    39.0920 ca         1 O0Z      -0.111000
     23 C30        133.9530   115.6620    38.2990 ca         1 O0Z      -0.119000
     24 C31        134.8590   116.5460    38.8750 ca         1 O0Z      -0.113000
     25 C32        134.8370   116.7490    40.2480 ca         1 O0Z      -0.119000
     26 C33        133.9180   116.0650    41.0370 ca         1 O0Z      -0.111000
     27 C34        133.5290   112.8880    42.4280 c3         1 O0Z       0.197800
     28 C35        133.8590   111.4490    42.8130 c3         1 O0Z      -0.074400
     29 N05        140.0080   108.9970    39.0460 n7         1 O0Z      -0.859400
     30 N10        136.4480   113.6450    40.0570 na         1 O0Z      -0.222700
     31 N19        137.3060   109.1270    41.1850 ns         1 O0Z      -0.495900
     32 N26        132.3140   113.0520    41.6600 n3         1 O0Z      -0.761600
     33 O18        137.0750   108.9130    38.9410 o          1 O0Z      -0.624100
     34 H1         136.3640   115.2050    42.4340 ha         1 O0Z       0.113000
     35 H2         138.1780   115.0280    44.1020 ha         1 O0Z       0.108000
     36 H3         140.0860   113.5100    43.7410 ha         1 O0Z       0.109000
     37 H4         142.8530   103.8290    39.4850 hc         1 O0Z       0.032367
     38 H5         142.2180   104.4720    37.9740 hc         1 O0Z       0.032367
     39 H6         143.5610   105.2770    38.7770 hc         1 O0Z       0.032367
     40 H7         142.0490   105.8450    40.7110 hc         1 O0Z       0.036200
     41 H8         140.7150   105.0540    39.9000 hc         1 O0Z       0.036200
     42 H9         140.9050   106.6850    38.0070 hc         1 O0Z       0.046700
     43 H10        142.2190   107.4950    38.8390 hc         1 O0Z       0.046700
     44 H11        140.7150   108.0310    40.7390 h1         1 O0Z       0.029200
     45 H12        139.4030   107.1580    39.9610 h1         1 O0Z       0.029200
     46 H13        139.5480   110.0960    40.7240 h1         1 O0Z       0.061700
     47 H14        138.6110   111.0020    37.9690 hc         1 O0Z       0.060700
     48 H15        140.0110   111.5970    38.8400 hc         1 O0Z       0.060700
     49 H16        136.4310   112.5060    38.2560 h4         1 O0Z       0.218000
     50 H17        140.2320   112.1230    41.7110 ha         1 O0Z       0.112000
     51 H18        135.5580   108.1470    40.7000 h1         1 O0Z       0.054200
     52 H19        136.3240   107.5850    42.1680 h1         1 O0Z       0.054200
     53 H20        134.3300   108.7800    42.7700 hc         1 O0Z       0.041200
     54 H21        135.7300   109.6410    43.3650 hc         1 O0Z       0.041200
     55 H22        135.5540   111.2830    41.5290 hc         1 O0Z       0.059700
     56 H23        133.1760   109.5940    40.6840 hc         1 O0Z       0.046200
     57 H24        134.6370   109.9220    39.7780 hc         1 O0Z       0.046200
     58 H25        132.8950   111.2230    38.8400 hc         1 O0Z       0.039700
     59 H26        133.9750   112.3470    39.6240 hc         1 O0Z       0.039700
     60 H27        131.3510   112.5570    39.9080 h1         1 O0Z       0.040700
     61 H28        131.5160   111.2270    41.0160 h1         1 O0Z       0.040700
     62 H29        131.9410   114.9770    42.3060 h1         1 O0Z       0.055700
     63 H30        131.0230   114.4790    40.9000 h1         1 O0Z       0.055700
     64 H31        132.3190   114.3230    38.6210 ha         1 O0Z       0.115000
     65 H32        133.9570   115.5020    37.2290 ha         1 O0Z       0.118000
     66 H33        135.5760   117.0710    38.2570 ha         1 O0Z       0.119000
     67 H34        135.5360   117.4360    40.7090 ha         1 O0Z       0.118000
     68 H35        133.9040   116.2350    42.1080 ha         1 O0Z       0.115000
     69 H36        134.4160   113.3050    41.9270 h1         1 O0Z       0.026200
     70 H37        133.4100   113.4770    43.3440 h1         1 O0Z       0.026200
     71 H38        132.9450   110.9040    43.0740 hc         1 O0Z       0.044200
     72 H39        134.4450   111.4970    43.7350 hc         1 O0Z       0.044200
     73 H40        139.6080   108.7700    38.1410 hn         1 O0Z       0.426000
     74 H42        135.6070   114.1830    39.9210 hn         1 O0Z       0.362000
     75 H43        137.9210   109.4440    41.9180 hn         1 O0Z       0.312500
     76 C27        132.0150   114.4360    41.3570 c3         1 O0Z       0.236100
     77 C03        141.3050   106.9160    39.0000 c3         1 O0Z      -0.079400
@<TRIPOS>BOND
     1     1     2 ar  
     2     1    13 ar  
     3     1    30 1   
     4     2     3 ar  
     5     2    34 1   
     6     3     4 ar  
     7     3    35 1   
     8     4    12 ar  
     9     4    36 1   
    10     5     6 1   
    11     5    37 1   
    12     5    38 1   
    13     5    39 1   
    14     6    40 1   
    15     6    41 1   
    16     6    77 1   
    17     7    29 1   
    18     7    44 1   
    19     7    45 1   
    20     7    77 1   
    21     8     9 1   
    22     8    14 1   
    23     8    29 1   
    24     8    46 1   
    25     9    10 1   
    26     9    47 1   
    27     9    48 1   
    28    10    11 2   
    29    10    13 1   
    30    11    30 1   
    31    11    49 1   
    32    12    13 ar  
    33    12    50 1   
    34    14    31 1   
    35    14    33 2   
    36    15    16 1   
    37    15    31 1   
    38    15    51 1   
    39    15    52 1   
    40    16    17 1   
    41    16    53 1   
    42    16    54 1   
    43    17    18 1   
    44    17    28 1   
    45    17    55 1   
    46    18    19 1   
    47    18    56 1   
    48    18    57 1   
    49    19    20 1   
    50    19    58 1   
    51    19    59 1   
    52    20    32 1   
    53    20    60 1   
    54    20    61 1   
    55    21    22 ar  
    56    21    26 ar  
    57    21    76 1   
    58    22    23 ar  
    59    22    64 1   
    60    23    24 ar  
    61    23    65 1   
    62    24    25 ar  
    63    24    66 1   
    64    25    26 ar  
    65    25    67 1   
    66    26    68 1   
    67    27    28 1   
    68    27    32 1   
    69    27    69 1   
    70    27    70 1   
    71    28    71 1   
    72    28    72 1   
    73    29    73 1   
    74    30    74 1   
    75    31    75 1   
    76    32    76 1   
    77    42    77 1   
    78    43    77 1   
    79    62    76 1   
    80    63    76 1   
@<TRIPOS>SUBSTRUCTURE
     1 O0Z         1 TEMP              0 ****  ****    0 ROOT
