@<TRIPOS>MOLECULE
O10
   22    24     1     0     0
SMALL
abcg2


@<TRIPOS>ATOM
      1 C02         24.8790    42.8980    79.8380 ca         1 O10       0.123900
      2 C03         25.1070    42.1140    80.9550 ca         1 O10      -0.146200
      3 C04         25.8100    42.6810    82.0340 ca         1 O10       0.120800
      4 C06         26.0860    44.5550    80.8440 ca         1 O10       0.101900
      5 C07         25.8120    41.7270    83.0950 cc         1 O10      -0.342800
      6 C08         25.1240    40.6480    82.6420 cd         1 O10      -0.103100
      7 C10         23.9340    39.9450    80.6230 ca         1 O10       0.262500
      8 C11         24.2520    39.5240    79.3320 ca         1 O10      -0.161900
      9 C12         23.3450    38.6650    78.7250 ca         1 O10       0.160900
     10 C14         22.1160    38.6250    80.5920 ca         1 O10       0.245000
     11 N01         25.3850    44.1200    79.7940 nb         1 O10      -0.170000
     12 N05         26.3180    43.9110    81.9710 nb         1 O10      -0.130000
     13 N09         24.7120    40.8500    81.3390 na         1 O10      -0.106200
     14 N13         22.2680    38.2190    79.3500 nb         1 O10      -0.158000
     15 N15         22.8720    39.4680    81.2510 nb         1 O10      -0.187000
     16 BR17        25.8490    39.9570    78.4730 br         1 O10      -0.014100
     17 H1          24.2860    42.5700    78.9920 h4         1 O10       0.030100
     18 H2          26.4970    45.5540    80.7610 h5         1 O10       0.052100
     19 H3          26.2680    41.8300    84.0660 ha         1 O10       0.228000
     20 H4          24.9030    39.7150    83.1340 h4         1 O10       0.232000
     21 H5          23.5060    38.3130    77.7120 h4         1 O10       0.052100
     22 CL1         20.7650    37.9900    81.4430 cl         1 O10      -0.090000
@<TRIPOS>BOND
     1     1     2 ar  
     2     1    11 ar  
     3     1    17 1   
     4     2     3 ar  
     5     2    13 1   
     6     3     5 1   
     7     3    12 ar  
     8     4    11 ar  
     9     4    12 ar  
    10     4    18 1   
    11     5     6 2   
    12     5    19 1   
    13     6    13 1   
    14     6    20 1   
    15     7     8 ar  
    16     7    13 1   
    17     7    15 ar  
    18     8     9 ar  
    19     8    16 1   
    20     9    14 ar  
    21     9    21 1   
    22    10    14 ar  
    23    10    15 ar  
    24    10    22 1   
@<TRIPOS>SUBSTRUCTURE
     1 O10         1 TEMP              0 ****  ****    0 ROOT
