@<TRIPOS>MOLECULE
O10
   22    24     1     0     0
SMALL
No Charge or Current Charge


@<TRIPOS>ATOM
      1 C02         24.6910    43.1040    79.9340 ca         1 O10       0.123900
      2 C03         25.1940    42.1910    80.8720 ca         1 O10      -0.146200
      3 C04         25.8060    42.6660    81.9950 ca         1 O10       0.120800
      4 C06         25.4380    44.8000    81.3220 ca         1 O10       0.101900
      5 C07         26.1740    41.5330    82.7900 cc         1 O10      -0.342800
      6 C08         25.7330    40.3940    82.1140 cd         1 O10      -0.103100
      7 C10         24.1410    40.0020    80.4300 ca         1 O10       0.262500
      8 C11         24.4530    38.9150    79.5770 ca         1 O10      -0.161900
      9 C12         23.4040    38.0970    79.1220 ca         1 O10       0.160900
     10 C14         21.9180    39.3810    80.2870 ca         1 O10       0.245000
     11 N01         24.8180    44.4330    80.1660 nb         1 O10      -0.170000
     12 N05         25.9440    43.9730    82.2730 nb         1 O10      -0.130000
     13 N09         25.1930    40.8060    80.8700 na         1 O10      -0.106200
     14 N13         22.1260    38.3270    79.4770 nb         1 O10      -0.158000
     15 N15         22.8520    40.2210    80.7760 nb         1 O10      -0.187000
     16 Br17        26.2530    38.5340    79.0200 br         1 O10      -0.014100
     17 H1          24.1960    42.7910    79.0160 h4         1 O10       0.030100
     18 H2          25.5340    45.8680    81.5060 h5         1 O10       0.052100
     19 H3          26.6330    41.5490    83.7760 ha         1 O10       0.228000
     20 H4          25.7490    39.3500    82.4230 h4         1 O10       0.232000
     21 H5          23.5870    37.2490    78.4640 h4         1 O10       0.052100
     22 Cl1         20.2560    39.6960    80.7580 cl         1 O10      -0.090000
@<TRIPOS>BOND
     1     1     2 ar  
     2     1    11 ar  
     3     1    17 1   
     4     2     3 ar  
     5     2    13 1   
     6     3     5 1   
     7     3    12 ar  
     8     4    11 ar  
     9     4    12 ar  
    10     4    18 1   
    11     5     6 2   
    12     5    19 1   
    13     6    13 1   
    14     6    20 1   
    15     7     8 ar  
    16     7    13 1   
    17     7    15 ar  
    18     8     9 ar  
    19     8    16 1   
    20     9    14 ar  
    21     9    21 1   
    22    10    14 ar  
    23    10    15 ar  
    24    10    22 1   
@<TRIPOS>SUBSTRUCTURE
     1 O10         1 TEMP              0 ****  ****    0 ROOT
