@<TRIPOS>MOLECULE
O11
   69    70     1     0     0
SMALL
bcc


@<TRIPOS>ATOM
      1 C14          0.6660    -0.2870    -0.6910 ca         1 O11      -0.089500
      2 C13          0.6580    -1.4550     0.0770 ca         1 O11      -0.105300
      3 C1          -7.5770     3.1770     0.8300 c3         1 O11       0.106400
      4 C6          -2.7970    -1.9320    -1.0710 ca         1 O11      -0.090000
      5 C5          -3.9840    -1.2270    -1.2000 ca         1 O11      -0.190500
      6 C4          -4.2590    -0.1490    -0.3640 ca         1 O11       0.137100
      7 C3          -5.8010     1.5180     0.3300 c3         1 O11       0.104400
      8 C2          -7.1880     2.0040    -0.0570 c3         1 O11       0.143100
      9 C7          -1.8400    -1.5900    -0.1190 ca         1 O11      -0.101300
     10 O02         -8.1400     0.9690    -0.0320 oh         1 O11      -0.560800
     11 C9          -3.3190     0.2090     0.6010 ca         1 O11      -0.190500
     12 C8          -2.1360    -0.5090     0.7070 ca         1 O11      -0.090000
     13 C10         -0.5580    -2.3810     0.1170 c3         1 O11       0.065600
     14 C11         -0.3320    -3.4980    -0.9300 c3         1 O11      -0.065400
     15 C25          0.0480    -3.0450    -2.3340 c3         1 O11      -0.090100
     16 C12         -0.6840    -3.0480     1.5130 c3         1 O11      -0.065400
     17 C26         -1.9600    -3.8490     1.7380 c3         1 O11      -0.090100
     18 C15          1.7890     0.5120    -0.7980 ca         1 O11      -0.192000
     19 C18          1.8450    -1.7830     0.7220 ca         1 O11      -0.089500
     20 C17          2.9890    -0.9950     0.6270 ca         1 O11      -0.192000
     21 C16          2.9680     0.1660    -0.1380 ca         1 O11       0.139100
     22 O04          4.0130     1.0040    -0.2940 os         1 O11      -0.311900
     23 C19          5.2730     0.6190     0.2200 c3         1 O11       0.105400
     24 C20          6.2810     1.6880    -0.1820 c3         1 O11       0.152100
     25 O05          6.2530     1.9020    -1.5750 oh         1 O11      -0.577800
     26 C21          7.7090     1.4120     0.3450 c3         1 O11      -0.076000
     27 C22          8.5970     2.6070    -0.0090 c3         1 O11      -0.086433
     28 C23          7.6870     1.2610     1.8690 c3         1 O11      -0.086433
     29 C24          8.3060     0.1440    -0.2740 c3         1 O11      -0.086433
     30 H1          -0.2260     0.0160    -1.2230 ha         1 O11       0.133000
     31 H2          -7.6360     2.8340     1.8740 h1         1 O11       0.019200
     32 H3          -6.7790     3.9300     0.7900 h1         1 O11       0.019200
     33 H4          -2.6420    -2.7700    -1.7370 ha         1 O11       0.134000
     34 H5          -4.7080    -1.5200    -1.9510 ha         1 O11       0.139000
     35 H6          -5.0890     2.3500     0.2710 h1         1 O11       0.035200
     36 H7          -5.8010     1.1580     1.3670 h1         1 O11       0.035200
     37 H8          -7.1540     2.3530    -1.0950 h1         1 O11       0.100700
     38 H9          -9.0590     4.4110     0.9720 ho         1 O11       0.405000
     39 H10         -8.2290     0.6530     0.8740 ho         1 O11       0.396000
     40 H11         -3.4840     1.0370     1.2760 ha         1 O11       0.139000
     41 H12         -1.4270    -0.2060     1.4690 ha         1 O11       0.134000
     42 H13          0.4680    -4.1380    -0.5480 hc         1 O11       0.039200
     43 H14         -1.2170    -4.1370    -0.9750 hc         1 O11       0.039200
     44 H15          0.0570    -3.8980    -3.0130 hc         1 O11       0.034867
     45 H16         -0.6470    -2.3100    -2.7420 hc         1 O11       0.034867
     46 H17          1.0410    -2.5970    -2.3540 hc         1 O11       0.034867
     47 H18          0.1680    -3.7170     1.6620 hc         1 O11       0.039200
     48 H19         -0.6040    -2.2770     2.2840 hc         1 O11       0.039200
     49 H20         -2.8460    -3.2160     1.7360 hc         1 O11       0.034867
     50 H21         -2.1020    -4.6210     0.9810 hc         1 O11       0.034867
     51 H22         -1.9170    -4.3500     2.7060 hc         1 O11       0.034867
     52 H23          1.7600     1.4110    -1.4020 ha         1 O11       0.139000
     53 H24          1.9100    -2.6790     1.3260 ha         1 O11       0.133000
     54 H25          3.8770    -1.3060     1.1610 ha         1 O11       0.139000
     55 H26          5.2290     0.5310     1.3090 h1         1 O11       0.037200
     56 H27          5.5600    -0.3630    -0.1790 h1         1 O11       0.037200
     57 H28          5.9520     2.6350     0.2620 h1         1 O11       0.083700
     58 H29          6.4960     1.0850    -2.0220 ho         1 O11       0.399000
     59 H30          8.2260     3.5270     0.4490 hc         1 O11       0.037144
     60 H31          9.6140     2.4450     0.3530 hc         1 O11       0.037144
     61 H32          8.6500     2.7690    -1.0860 hc         1 O11       0.037144
     62 H33          7.1910     0.3440     2.1910 hc         1 O11       0.037144
     63 H34          8.7070     1.2250     2.2550 hc         1 O11       0.037144
     64 H35          7.1820     2.1030     2.3490 hc         1 O11       0.037144
     65 H36          8.3910     0.2090    -1.3610 hc         1 O11       0.037144
     66 H37          9.3170    -0.0150     0.1060 hc         1 O11       0.037144
     67 H38          7.7270    -0.7490    -0.0320 hc         1 O11       0.037144
     68 O03         -5.4360     0.4820    -0.5560 os         1 O11      -0.306900
     69 O01         -8.8050     3.6940     0.3830 oh         1 O11      -0.578800
@<TRIPOS>BOND
     1     1     2 ar  
     2     1    18 ar  
     3     1    30 1   
     4     2    13 1   
     5     2    19 ar  
     6     3     8 1   
     7     3    31 1   
     8     3    32 1   
     9     3    69 1   
    10     4     5 ar  
    11     4     9 ar  
    12     4    33 1   
    13     5     6 ar  
    14     5    34 1   
    15     6    11 ar  
    16     6    68 1   
    17     7     8 1   
    18     7    35 1   
    19     7    36 1   
    20     7    68 1   
    21     8    10 1   
    22     8    37 1   
    23     9    12 ar  
    24     9    13 1   
    25    10    39 1   
    26    11    12 ar  
    27    11    40 1   
    28    12    41 1   
    29    13    14 1   
    30    13    16 1   
    31    14    15 1   
    32    14    42 1   
    33    14    43 1   
    34    15    44 1   
    35    15    45 1   
    36    15    46 1   
    37    16    17 1   
    38    16    47 1   
    39    16    48 1   
    40    17    49 1   
    41    17    50 1   
    42    17    51 1   
    43    18    21 ar  
    44    18    52 1   
    45    19    20 ar  
    46    19    53 1   
    47    20    21 ar  
    48    20    54 1   
    49    21    22 1   
    50    22    23 1   
    51    23    24 1   
    52    23    55 1   
    53    23    56 1   
    54    24    25 1   
    55    24    26 1   
    56    24    57 1   
    57    25    58 1   
    58    26    27 1   
    59    26    28 1   
    60    26    29 1   
    61    27    59 1   
    62    27    60 1   
    63    27    61 1   
    64    28    62 1   
    65    28    63 1   
    66    28    64 1   
    67    29    65 1   
    68    29    66 1   
    69    29    67 1   
    70    38    69 1   
@<TRIPOS>SUBSTRUCTURE
     1 O11         1 TEMP              0 ****  ****    0 ROOT
