@<TRIPOS>MOLECULE
O11
   69    70     1     0     0
SMALL
No Charge or Current Charge


@<TRIPOS>ATOM
      1 C14          0.6600    -0.6350    -0.9200 ca         1 O11      -0.071500
      2 C13          0.6860    -1.7790    -0.0840 ca         1 O11      -0.105300
      3 C1          -7.2320     3.6020     0.8110 c3         1 O11       0.129600
      4 C6          -2.9250    -2.1990    -0.9890 ca         1 O11      -0.072000
      5 C5          -4.0840    -1.4060    -1.0380 ca         1 O11      -0.172500
      6 C4          -4.2130    -0.2750    -0.2210 ca         1 O11       0.137100
      7 C3          -5.6030     1.6420     0.4830 c3         1 O11       0.127600
      8 C2          -6.9920     2.2320     0.1250 c3         1 O11       0.166300
      9 C7          -1.8560    -1.8660    -0.1210 ca         1 O11      -0.101300
     10 O02         -8.0480     1.3320     0.5160 oh         1 O11      -0.623000
     11 C9          -3.1680     0.0590     0.6620 ca         1 O11      -0.172500
     12 C8          -2.0080    -0.7330     0.7120 ca         1 O11      -0.072000
     13 C10         -0.5570    -2.7160     0.0010 c3         1 O11       0.065600
     14 C11         -0.3930    -3.8100    -1.1150 c3         1 O11      -0.065400
     15 C25         -0.1670    -3.2990    -2.5600 c3         1 O11      -0.090100
     16 C12         -0.6260    -3.4370     1.3960 c3         1 O11      -0.065400
     17 C26         -1.9270    -4.2230     1.6980 c3         1 O11      -0.090100
     18 C15          1.7730     0.2150    -1.0220 ca         1 O11      -0.174000
     19 C18          1.8850    -2.0520     0.6200 ca         1 O11      -0.071500
     20 C17          2.9990    -1.2000     0.5170 ca         1 O11      -0.174000
     21 C16          2.9440    -0.0570    -0.3050 ca         1 O11       0.139100
     22 O04          4.0060     0.8120    -0.4450 os         1 O11      -0.335100
     23 C19          5.2530     0.6190     0.2530 c3         1 O11       0.128600
     24 C20          6.2090     1.7870    -0.1310 c3         1 O11       0.175300
     25 O05          6.2500     1.8950    -1.5670 oh         1 O11      -0.640000
     26 C21          7.6660     1.6890     0.4610 c3         1 O11      -0.076000
     27 C22          8.4770     2.9570     0.0640 c3         1 O11      -0.086433
     28 C23          7.6090     1.6310     2.0140 c3         1 O11      -0.086433
     29 C24          8.4230     0.4320    -0.0580 c3         1 O11      -0.086433
     30 H1          -0.2260    -0.3990    -1.5050 ha         1 O11       0.115000
     31 H2          -7.1110     3.4930     1.8970 h1         1 O11       0.019200
     32 H3          -6.4750     4.3160     0.4600 h1         1 O11       0.019200
     33 H4          -2.8840    -3.0740    -1.6300 ha         1 O11       0.116000
     34 H5          -4.8930    -1.6750    -1.7130 ha         1 O11       0.121000
     35 H6          -4.8310     2.3940     0.2750 h1         1 O11       0.035200
     36 H7          -5.5720     1.4010     1.5530 h1         1 O11       0.035200
     37 H8          -7.0150     2.3980    -0.9620 h1         1 O11       0.100700
     38 H9          -8.6350     4.9770     0.9160 ho         1 O11       0.444000
     39 H10         -8.8490     1.9000     0.5750 ho         1 O11       0.435000
     40 H11         -3.2350     0.9240     1.3160 ha         1 O11       0.121000
     41 H12         -1.2160    -0.4590     1.4060 ha         1 O11       0.116000
     42 H13          0.4660    -4.4420    -0.8600 hc         1 O11       0.039200
     43 H14         -1.2560    -4.4850    -1.1130 hc         1 O11       0.039200
     44 H15         -0.2000    -4.1380    -3.2640 hc         1 O11       0.034867
     45 H16         -0.9300    -2.5740    -2.8610 hc         1 O11       0.034867
     46 H17          0.8160    -2.8250    -2.6580 hc         1 O11       0.034867
     47 H18          0.2020    -4.1490     1.4890 hc         1 O11       0.039200
     48 H19         -0.4870    -2.6960     2.1920 hc         1 O11       0.039200
     49 H20         -2.8000    -3.5600     1.7210 hc         1 O11       0.034867
     50 H21         -2.1040    -5.0080     0.9550 hc         1 O11       0.034867
     51 H22         -1.8520    -4.7050     2.6800 hc         1 O11       0.034867
     52 H23          1.7280     1.0890    -1.6660 ha         1 O11       0.121000
     53 H24          1.9790    -2.9300     1.2510 ha         1 O11       0.115000
     54 H25          3.8950    -1.4480     1.0780 ha         1 O11       0.121000
     55 H26          5.0850     0.6230     1.3370 h1         1 O11       0.037200
     56 H27          5.7010    -0.3410    -0.0290 h1         1 O11       0.037200
     57 H28          5.7540     2.7000     0.2800 h1         1 O11       0.083700
     58 H29          5.3400     1.6800    -1.8700 ho         1 O11       0.438000
     59 H30          7.9690     3.8690     0.4000 hc         1 O11       0.037144
     60 H31          9.4760     2.9420     0.5160 hc         1 O11       0.037144
     61 H32          8.6090     3.0240    -1.0230 hc         1 O11       0.037144
     62 H33          7.1320     0.7080     2.3650 hc         1 O11       0.037144
     63 H34          8.6180     1.6600     2.4440 hc         1 O11       0.037144
     64 H35          7.0460     2.4810     2.4190 hc         1 O11       0.037144
     65 H36          8.4860     0.4270    -1.1520 hc         1 O11       0.037144
     66 H37          9.4470     0.4070     0.3340 hc         1 O11       0.037144
     67 H38          7.9290    -0.4950     0.2580 hc         1 O11       0.037144
     68 O03         -5.3750     0.4630    -0.3150 os         1 O11      -0.330100
     69 O01         -8.5500     4.0880     0.5030 oh         1 O11      -0.641000
@<TRIPOS>BOND
     1     1     2 ar  
     2     1    18 ar  
     3     1    30 1   
     4     2    13 1   
     5     2    19 ar  
     6     3     8 1   
     7     3    31 1   
     8     3    32 1   
     9     3    69 1   
    10     4     5 ar  
    11     4     9 ar  
    12     4    33 1   
    13     5     6 ar  
    14     5    34 1   
    15     6    11 ar  
    16     6    68 1   
    17     7     8 1   
    18     7    35 1   
    19     7    36 1   
    20     7    68 1   
    21     8    10 1   
    22     8    37 1   
    23     9    12 ar  
    24     9    13 1   
    25    10    39 1   
    26    11    12 ar  
    27    11    40 1   
    28    12    41 1   
    29    13    14 1   
    30    13    16 1   
    31    14    15 1   
    32    14    42 1   
    33    14    43 1   
    34    15    44 1   
    35    15    45 1   
    36    15    46 1   
    37    16    17 1   
    38    16    47 1   
    39    16    48 1   
    40    17    49 1   
    41    17    50 1   
    42    17    51 1   
    43    18    21 ar  
    44    18    52 1   
    45    19    20 ar  
    46    19    53 1   
    47    20    21 ar  
    48    20    54 1   
    49    21    22 1   
    50    22    23 1   
    51    23    24 1   
    52    23    55 1   
    53    23    56 1   
    54    24    25 1   
    55    24    26 1   
    56    24    57 1   
    57    25    58 1   
    58    26    27 1   
    59    26    28 1   
    60    26    29 1   
    61    27    59 1   
    62    27    60 1   
    63    27    61 1   
    64    28    62 1   
    65    28    63 1   
    66    28    64 1   
    67    29    65 1   
    68    29    66 1   
    69    29    67 1   
    70    38    69 1   
@<TRIPOS>SUBSTRUCTURE
     1 O11         1 TEMP              0 ****  ****    0 ROOT
