@<TRIPOS>MOLECULE
O12
   55    54     1     0     0
SMALL
No Charge or Current Charge


@<TRIPOS>ATOM
      1 N           19.1100    33.7960   -18.1010 n8         1 O12      -1.004200
      2 CA          19.8480    35.0300   -17.6410 c3         1 O12       0.010500
      3 CB          20.3490    34.8670   -16.1790 c3         1 O12      -0.046400
      4 CG          19.2240    34.7310   -15.1240 c3         1 O12      -0.093400
      5 CD          19.7650    34.6230   -13.6840 c3         1 O12       0.097000
      6 NE          18.6920    34.4790   -12.6970 ns         1 O12      -0.500900
      7 C1          17.9250    35.5140   -12.2100 c          1 O12       0.591100
      8 O1          18.0820    36.6730   -12.5670 o          1 O12      -0.622100
      9 C2          16.8350    35.0990   -11.2130 c3         1 O12      -0.158400
     10 C3          17.1650    35.5320    -9.7630 c3         1 O12      -0.059400
     11 C4          18.4340    34.8650    -9.1840 c3         1 O12      -0.078400
     12 C5          18.7180    35.2780    -7.7230 c3         1 O12      -0.074400
     13 C6          19.9870    34.6090    -7.1440 c3         1 O12      -0.073400
     14 C7          20.3570    35.0660    -5.7130 c3         1 O12      -0.073400
     15 C8          19.3320    34.6650    -4.6260 c3         1 O12      -0.076400
     16 C9          19.7800    35.0650    -3.2000 c3         1 O12      -0.074400
     17 C10         18.8210    34.6090    -2.0750 c3         1 O12      -0.073400
     18 C11         17.4270    35.2800    -2.1070 c3         1 O12      -0.076400
     19 C12         16.5350    34.8680    -0.9200 c3         1 O12      -0.089100
     20 C           21.0350    35.5180   -18.5730 c          1 O12       0.694000
     21 O           21.0010    36.6630   -19.0020 o          1 O12      -0.732000
     22 OXT         21.8780    34.7000   -18.9190 o          1 O12      -0.732000
     23 HN          18.7450    33.9590   -19.0470 hn         1 O12       0.383000
     24 HNA         19.7970    33.0450   -18.2440 hn         1 O12       0.383000
     25 HA          19.1130    35.8470   -17.6360 h1         1 O12       0.033700
     26 HB          21.0190    34.0000   -16.1160 hc         1 O12       0.042200
     27 HBA         20.9550    35.7450   -15.9220 hc         1 O12       0.042200
     28 HG          18.5570    35.5980   -15.1970 hc         1 O12       0.039700
     29 HGA         18.6200    33.8410   -15.3420 hc         1 O12       0.039700
     30 HD          20.4260    33.7490   -13.6060 h1         1 O12       0.047700
     31 HDA         20.3570    35.5160   -13.4410 h1         1 O12       0.047700
     32 HNE         18.4810    33.5520   -12.3460 hn         1 O12       0.308500
     33 H2          15.8960    35.5830   -11.5040 hc         1 O12       0.050200
     34 H2A         16.7030    34.0100   -11.2280 hc         1 O12       0.050200
     35 H3          17.2790    36.6230    -9.7290 hc         1 O12       0.043700
     36 H3A         16.3090    35.2860    -9.1220 hc         1 O12       0.043700
     37 H4          18.3230    33.7740    -9.2340 hc         1 O12       0.044200
     38 H4A         19.3010    35.1280    -9.8030 hc         1 O12       0.044200
     39 H5          18.8300    36.3680    -7.6730 hc         1 O12       0.034700
     40 H5A         17.8500    35.0150    -7.1080 hc         1 O12       0.034700
     41 H6          19.8600    33.5190    -7.1540 hc         1 O12       0.039200
     42 H6A         20.8340    34.8300    -7.8050 hc         1 O12       0.039200
     43 H7          21.3310    34.6310    -5.4550 hc         1 O12       0.035200
     44 H7A         20.4900    36.1550    -5.7040 hc         1 O12       0.035200
     45 H8          18.3700    35.1420    -4.8470 hc         1 O12       0.038700
     46 H8A         19.1710    33.5810    -4.6630 hc         1 O12       0.038700
     47 H9          20.7680    34.6290    -3.0070 hc         1 O12       0.035200
     48 H9A         19.9040    36.1540    -3.1500 hc         1 O12       0.035200
     49 H10         18.7020    33.5190    -2.1220 hc         1 O12       0.034700
     50 H10A        19.2950    34.8290    -1.1100 hc         1 O12       0.034700
     51 H11         17.5480    36.3700    -2.1010 hc         1 O12       0.038700
     52 H11A        16.9100    35.0180    -3.0380 hc         1 O12       0.038700
     53 H12         17.0000    35.1510     0.0320 hc         1 O12       0.029033
     54 H12A        15.5600    35.3640    -0.9860 hc         1 O12       0.029033
     55 H12B        16.3690    33.7840    -0.9170 hc         1 O12       0.029033
@<TRIPOS>BOND
     1     1     2 1   
     2     1    23 1   
     3     1    24 1   
     4     2     3 1   
     5     2    20 1   
     6     2    25 1   
     7     3     4 1   
     8     3    26 1   
     9     3    27 1   
    10     4     5 1   
    11     4    28 1   
    12     4    29 1   
    13     5     6 1   
    14     5    30 1   
    15     5    31 1   
    16     6     7 1   
    17     6    32 1   
    18     7     8 2   
    19     7     9 1   
    20     9    10 1   
    21     9    33 1   
    22     9    34 1   
    23    10    11 1   
    24    10    35 1   
    25    10    36 1   
    26    11    12 1   
    27    11    37 1   
    28    11    38 1   
    29    12    13 1   
    30    12    39 1   
    31    12    40 1   
    32    13    14 1   
    33    13    41 1   
    34    13    42 1   
    35    14    15 1   
    36    14    43 1   
    37    14    44 1   
    38    15    16 1   
    39    15    45 1   
    40    15    46 1   
    41    16    17 1   
    42    16    47 1   
    43    16    48 1   
    44    17    18 1   
    45    17    49 1   
    46    17    50 1   
    47    18    19 1   
    48    18    51 1   
    49    18    52 1   
    50    19    53 1   
    51    19    54 1   
    52    19    55 1   
    53    20    21 1   
    54    20    22 1   
@<TRIPOS>SUBSTRUCTURE
     1 O12         1 TEMP              0 ****  ****    0 ROOT
