@<TRIPOS>MOLECULE
O12
   55    54     1     0     0
SMALL
abcg2


@<TRIPOS>ATOM
      1 N           20.2230    32.7930   -17.1830 n8         1 O12      -1.004200
      2 CA          19.8880    34.1370   -17.6350 c3         1 O12       0.010500
      3 CB          20.0090    35.1270   -16.4730 c3         1 O12      -0.046400
      4 CG          19.0740    34.8210   -15.3110 c3         1 O12      -0.093400
      5 CD          19.2330    35.8150   -14.1720 c3         1 O12       0.097000
      6 NE          18.3150    35.5040   -13.0950 ns         1 O12      -0.500900
      7 C1          18.1520    36.2820   -12.0150 c          1 O12       0.591100
      8 O1          18.8000    37.3070   -11.8410 o          1 O12      -0.622100
      9 C2          17.0780    35.8310   -11.0450 c3         1 O12      -0.158400
     10 C3          17.4320    36.0810    -9.5850 c3         1 O12      -0.059400
     11 C4          18.5910    35.2310    -9.0820 c3         1 O12      -0.078400
     12 C5          18.8750    35.4460    -7.6000 c3         1 O12      -0.074400
     13 C6          20.0170    34.5780    -7.0820 c3         1 O12      -0.073400
     14 C7          20.3690    34.8070    -5.6150 c3         1 O12      -0.073400
     15 C8          19.2580    34.4450    -4.6350 c3         1 O12      -0.076400
     16 C9          19.7090    34.5410    -3.1810 c3         1 O12      -0.074400
     17 C10         18.6510    34.1210    -2.1640 c3         1 O12      -0.073400
     18 C11         17.4470    35.0540    -2.0810 c3         1 O12      -0.076400
     19 C12         16.4460    34.6210    -1.0190 c3         1 O12      -0.089100
     20 C           20.7210    34.6530   -18.8400 c          1 O12       0.694000
     21 O           20.2750    35.6660   -19.4180 o          1 O12      -0.732000
     22 OXT         21.7700    34.0360   -19.1140 o          1 O12      -0.732000
     23 HN          19.9500    32.1320   -17.9010 hn         1 O12       0.383000
     24 HNA         21.2340    32.7270   -17.1550 hn         1 O12       0.383000
     25 HA          18.8360    34.1270   -17.9450 h1         1 O12       0.033700
     26 HB          21.0460    35.1380   -16.1160 hc         1 O12       0.042200
     27 HBA         19.8020    36.1330   -16.8470 hc         1 O12       0.042200
     28 HG          18.0380    34.8390   -15.6660 hc         1 O12       0.039700
     29 HGA         19.2630    33.8090   -14.9440 hc         1 O12       0.039700
     30 HD          20.2640    35.7980   -13.8060 h1         1 O12       0.047700
     31 HDA         19.0450    36.8300   -14.5340 h1         1 O12       0.047700
     32 HNE         17.7690    34.6610   -13.1700 hn         1 O12       0.308500
     33 H2          16.1690    36.3860   -11.3000 hc         1 O12       0.050200
     34 H2A         16.8390    34.7750   -11.1980 hc         1 O12       0.050200
     35 H3          17.6580    37.1400    -9.4400 hc         1 O12       0.043700
     36 H3A         16.5460    35.8740    -8.9790 hc         1 O12       0.043700
     37 H4          18.3670    34.1730    -9.2580 hc         1 O12       0.044200
     38 H4A         19.4960    35.4520    -9.6580 hc         1 O12       0.044200
     39 H5          19.1140    36.5010    -7.4240 hc         1 O12       0.034700
     40 H5A         17.9610    35.2440    -7.0330 hc         1 O12       0.034700
     41 H6          19.7640    33.5220    -7.2320 hc         1 O12       0.039200
     42 H6A         20.9050    34.7650    -7.6930 hc         1 O12       0.039200
     43 H7          21.2580    34.2170    -5.3710 hc         1 O12       0.035200
     44 H7A         20.6550    35.8550    -5.4680 hc         1 O12       0.035200
     45 H8          18.3930    35.0920    -4.8010 hc         1 O12       0.038700
     46 H8A         18.9160    33.4230    -4.8380 hc         1 O12       0.038700
     47 H9          20.5950    33.9110    -3.0490 hc         1 O12       0.035200
     48 H9A         20.0330    35.5650    -2.9660 hc         1 O12       0.035200
     49 H10         18.3070    33.1070    -2.3970 hc         1 O12       0.034700
     50 H10A        19.1140    34.0620    -1.1740 hc         1 O12       0.034700
     51 H11         17.7960    36.0690    -1.8660 hc         1 O12       0.038700
     52 H11A        16.9440    35.1060    -3.0500 hc         1 O12       0.038700
     53 H12         16.9080    34.5880    -0.0300 hc         1 O12       0.029033
     54 H12A        15.5970    35.3030    -0.9640 hc         1 O12       0.029033
     55 H12B        16.0540    33.6240    -1.2300 hc         1 O12       0.029033
@<TRIPOS>BOND
     1     1     2 1   
     2     1    23 1   
     3     1    24 1   
     4     2     3 1   
     5     2    20 1   
     6     2    25 1   
     7     3     4 1   
     8     3    26 1   
     9     3    27 1   
    10     4     5 1   
    11     4    28 1   
    12     4    29 1   
    13     5     6 1   
    14     5    30 1   
    15     5    31 1   
    16     6     7 1   
    17     6    32 1   
    18     7     8 2   
    19     7     9 1   
    20     9    10 1   
    21     9    33 1   
    22     9    34 1   
    23    10    11 1   
    24    10    35 1   
    25    10    36 1   
    26    11    12 1   
    27    11    37 1   
    28    11    38 1   
    29    12    13 1   
    30    12    39 1   
    31    12    40 1   
    32    13    14 1   
    33    13    41 1   
    34    13    42 1   
    35    14    15 1   
    36    14    43 1   
    37    14    44 1   
    38    15    16 1   
    39    15    45 1   
    40    15    46 1   
    41    16    17 1   
    42    16    47 1   
    43    16    48 1   
    44    17    18 1   
    45    17    49 1   
    46    17    50 1   
    47    18    19 1   
    48    18    51 1   
    49    18    52 1   
    50    19    53 1   
    51    19    54 1   
    52    19    55 1   
    53    20    21 1   
    54    20    22 1   
@<TRIPOS>SUBSTRUCTURE
     1 O12         1 TEMP              0 ****  ****    0 ROOT
