@<TRIPOS>MOLECULE
O13
   39    40     1     0     0
SMALL
abcg2


@<TRIPOS>ATOM
      1 O           -0.0130   -18.3200    12.3030 os         1 O13      -0.314000
      2 N1          -2.3210   -12.3120    18.0880 nv         1 O13      -1.087200
      3 C2          -1.7310   -14.4180    17.0470 ca         1 O13      -0.131900
      4 N2          -0.5970   -17.8410    13.4640 n2         1 O13      -0.323700
      5 C3          -2.0680   -15.7690    16.8960 ca         1 O13      -0.086000
      6 N3          -2.1820   -19.1510    10.4200 n3         1 O13      -0.710600
      7 C4          -1.6300   -16.4940    15.8050 ca         1 O13      -0.092500
      8 N4          -2.4540   -14.3120    19.3310 n2         1 O13      -0.826100
      9 C5          -0.8280   -15.8890    14.8260 ca         1 O13      -0.121900
     10 C6          -0.3360   -16.6070    13.6530 ce         1 O13       0.414800
     11 C7          -0.4090   -19.6900    12.0620 c6         1 O13       0.182300
     12 C8           0.4780   -20.2020    10.9380 c6         1 O13      -0.076400
     13 C9           0.0930   -19.5870     9.5930 c6         1 O13      -0.071400
     14 C10         -1.4010   -19.7420     9.3360 c6         1 O13       0.163800
     15 C12         -1.8840   -19.7890    11.6970 c6         1 O13       0.141800
     16 C13         -0.4890   -14.5420    14.9770 ca         1 O13      -0.092500
     17 C14         -0.9360   -13.8140    16.0720 ca         1 O13      -0.086000
     18 HN1         -2.7710   -11.7940    18.8270 hn         1 O13       0.466000
     19 HN1A        -2.4520   -11.9340    17.1630 hn         1 O13       0.466000
     20 H3          -2.6880   -16.2400    17.6470 ha         1 O13       0.128000
     21 H4          -1.9060   -17.5340    15.7010 ha         1 O13       0.124000
     22 HN4         -2.8010   -13.6820    20.0530 hn         1 O13       0.369400
     23 H6           0.2710   -16.0550    12.9360 h4         1 O13       0.006800
     24 H7          -0.2320   -20.2540    12.9810 h1         1 O13       0.054700
     25 H8           0.3510   -21.2880    10.8940 hc         1 O13       0.050200
     26 H8A          1.5250   -20.0090    11.1800 hc         1 O13       0.050200
     27 H9           0.6540   -20.0670     8.7870 hc         1 O13       0.051700
     28 H9A          0.3510   -18.5260     9.5800 hc         1 O13       0.051700
     29 H10         -1.6790   -19.2450     8.4040 h1         1 O13       0.029200
     30 H10A        -1.6470   -20.8150     9.2190 h1         1 O13       0.029200
     31 H11         -4.1590   -18.7090    10.9430 h1         1 O13       0.030033
     32 H11A        -3.8150   -18.6670     9.2050 h1         1 O13       0.030033
     33 H11B        -3.9840   -20.2280    10.0380 h1         1 O13       0.030033
     34 H12         -2.4830   -19.3150    12.4760 h1         1 O13       0.041200
     35 H12A        -2.1530   -20.8620    11.6840 h1         1 O13       0.041200
     36 H13          0.1340   -14.0620    14.2320 ha         1 O13       0.124000
     37 H14         -0.6430   -12.7780    16.1710 ha         1 O13       0.128000
     38 C11         -3.6070   -19.1950    10.1370 c3         1 O13       0.153100
     39 C1          -2.2150   -13.6690    18.2420 ce         1 O13       0.659800
@<TRIPOS>BOND
     1     1     4 1   
     2     1    11 1   
     3     2    18 1   
     4     2    19 1   
     5     2    39 1   
     6     3     5 ar  
     7     3    17 ar  
     8     3    39 1   
     9     4    10 2   
    10     5     7 ar  
    11     5    20 1   
    12     6    14 1   
    13     6    15 1   
    14     6    38 1   
    15     7     9 ar  
    16     7    21 1   
    17     8    22 1   
    18     8    39 2   
    19     9    10 1   
    20     9    16 ar  
    21    10    23 1   
    22    11    12 1   
    23    11    15 1   
    24    11    24 1   
    25    12    13 1   
    26    12    25 1   
    27    12    26 1   
    28    13    14 1   
    29    13    27 1   
    30    13    28 1   
    31    14    29 1   
    32    14    30 1   
    33    15    34 1   
    34    15    35 1   
    35    16    17 ar  
    36    16    36 1   
    37    17    37 1   
    38    31    38 1   
    39    32    38 1   
    40    33    38 1   
@<TRIPOS>SUBSTRUCTURE
     1 O13         1 TEMP              0 ****  ****    0 ROOT
