@<TRIPOS>MOLECULE
O13
   39    40     1     0     0
SMALL
No Charge or Current Charge


@<TRIPOS>ATOM
      1 O           -0.0640   -18.3460    12.3220 os         1 O13      -0.314000
      2 N1          -2.2390   -12.2150    18.3010 nv         1 O13      -1.087200
      3 C2          -1.7480   -14.3250    17.1550 ca         1 O13      -0.131900
      4 N2          -0.6240   -17.8110    13.5040 n2         1 O13      -0.323700
      5 C3          -2.1050   -15.6820    16.9830 ca         1 O13      -0.086000
      6 N3          -2.2560   -19.2780    10.3040 n3         1 O13      -0.710600
      7 C4          -1.6550   -16.4150    15.8720 ca         1 O13      -0.092500
      8 N4          -2.6710   -14.1230    19.4070 n2         1 O13      -0.826100
      9 C5          -0.8190   -15.8130    14.9060 ca         1 O13      -0.121900
     10 C6          -0.3200   -16.5660    13.7120 ce         1 O13       0.414800
     11 C7          -0.3970   -19.7220    12.0100 c6         1 O13       0.182300
     12 C8           0.5050   -20.2360    10.8600 c6         1 O13      -0.076400
     13 C9           0.1060   -19.5940     9.5080 c6         1 O13      -0.071400
     14 C10         -1.3990   -19.8090     9.2100 c6         1 O13       0.163800
     15 C12         -1.9040   -19.8920    11.6250 c6         1 O13       0.141800
     16 C13         -0.4400   -14.4690    15.0840 ca         1 O13      -0.092500
     17 C14         -0.8910   -13.7350    16.1950 ca         1 O13      -0.086000
     18 HN1         -2.9220   -11.7630    18.8970 hn         1 O13       0.466000
     19 HN1A        -2.1610   -11.8250    17.3690 hn         1 O13       0.466000
     20 H3          -2.7460   -16.1750    17.7120 ha         1 O13       0.128000
     21 H4          -1.9590   -17.4550    15.7690 ha         1 O13       0.124000
     22 HN4         -2.7120   -13.4190    20.1510 hn         1 O13       0.369400
     23 H6           0.3190   -16.0150    13.0180 h4         1 O13       0.006800
     24 H7          -0.1910   -20.3260    12.9060 h1         1 O13       0.054700
     25 H8           0.4130   -21.3290    10.7880 hc         1 O13       0.050200
     26 H8A          1.5590   -20.0270    11.0850 hc         1 O13       0.050200
     27 H9           0.7090   -20.0230     8.6970 hc         1 O13       0.051700
     28 H9A          0.3260   -18.5180     9.5260 hc         1 O13       0.051700
     29 H10         -1.6440   -19.3110     8.2600 h1         1 O13       0.029200
     30 H10A        -1.5860   -20.8840     9.0690 h1         1 O13       0.029200
     31 H11         -4.2990   -18.9280    10.7940 h1         1 O13       0.030033
     32 H11A        -3.9340   -18.8700     9.0560 h1         1 O13       0.030033
     33 H11B        -4.0000   -20.4370     9.8990 h1         1 O13       0.030033
     34 H12         -2.5260   -19.4600    12.4230 h1         1 O13       0.041200
     35 H12A        -2.1320   -20.9680    11.6050 h1         1 O13       0.041200
     36 H13          0.2150   -13.9870    14.3600 ha         1 O13       0.124000
     37 H14         -0.5570   -12.7060    16.3070 ha         1 O13       0.128000
     38 C11         -3.6980   -19.3860     9.9970 c3         1 O13       0.153100
     39 C1          -2.2120   -13.5650    18.3640 ce         1 O13       0.659800
@<TRIPOS>BOND
     1     1     4 1   
     2     1    11 1   
     3     2    18 1   
     4     2    19 1   
     5     2    39 1   
     6     3     5 ar  
     7     3    17 ar  
     8     3    39 1   
     9     4    10 2   
    10     5     7 ar  
    11     5    20 1   
    12     6    14 1   
    13     6    15 1   
    14     6    38 1   
    15     7     9 ar  
    16     7    21 1   
    17     8    22 1   
    18     8    39 2   
    19     9    10 1   
    20     9    16 ar  
    21    10    23 1   
    22    11    12 1   
    23    11    15 1   
    24    11    24 1   
    25    12    13 1   
    26    12    25 1   
    27    12    26 1   
    28    13    14 1   
    29    13    27 1   
    30    13    28 1   
    31    14    29 1   
    32    14    30 1   
    33    15    34 1   
    34    15    35 1   
    35    16    17 ar  
    36    16    36 1   
    37    17    37 1   
    38    31    38 1   
    39    32    38 1   
    40    33    38 1   
@<TRIPOS>SUBSTRUCTURE
     1 O13         1 TEMP              0 ****  ****    0 ROOT
