@<TRIPOS>MOLECULE
O14
   39    40     1     0     0
SMALL
No Charge or Current Charge


@<TRIPOS>ATOM
      1 O           -1.3700   -18.2790    11.8220 os         1 O14      -0.332000
      2 N1          -2.4960   -14.2210    19.3620 nv         1 O14      -1.086200
      3 C2          -1.5740   -14.4860    17.1070 ca         1 O14      -0.129900
      4 N2          -1.5730   -17.7960    13.1340 n2         1 O14      -0.324700
      5 C3          -1.0730   -13.8340    15.9570 ca         1 O14      -0.086000
      6 N3           0.6760   -20.8610    10.2590 n3         1 O14      -0.719600
      7 C4          -0.9760   -14.5090    14.7280 ca         1 O14      -0.091500
      8 N4          -1.0160   -12.6830    18.6580 n2         1 O14      -0.827100
      9 C5          -1.3610   -15.8590    14.6160 ca         1 O14      -0.125900
     10 C6          -1.2430   -16.5500    13.2930 ce         1 O14       0.414800
     11 C7          -1.6990   -19.6670    11.5800 c6         1 O14       0.179300
     12 C8          -0.7300   -20.6230    12.3220 c6         1 O14      -0.085400
     13 C9           0.6920   -20.5590    11.7180 c6         1 O14       0.164800
     14 C11         -0.2100   -19.9200     9.5200 c6         1 O14       0.164800
     15 C12         -1.6590   -19.9610    10.0630 c6         1 O14      -0.085400
     16 C13         -1.8400   -16.5240    15.7660 ca         1 O14      -0.091500
     17 C14         -1.9390   -15.8490    16.9950 ca         1 O14      -0.086000
     18 HN1         -2.8460   -13.5280    20.0130 hn         1 O14       0.466000
     19 HN1A        -3.1890   -14.8820    19.0310 hn         1 O14       0.466000
     20 H3          -0.7640   -12.7920    16.0090 ha         1 O14       0.129000
     21 H4          -0.5950   -13.9770    13.8580 ha         1 O14       0.124500
     22 HN4         -1.0540   -12.5120    19.6690 hn         1 O14       0.370400
     23 H6          -0.8580   -15.9550    12.4620 h4         1 O14       0.006800
     24 H7          -2.7230   -19.8400    11.9420 h1         1 O14       0.055700
     25 H8          -1.1070   -21.6520    12.2490 hc         1 O14       0.057450
     26 H8A         -0.6940   -20.3860    13.3930 hc         1 O14       0.057450
     27 H9           1.3320   -21.2790    12.2480 h1         1 O14       0.035450
     28 H9A          1.1160   -19.5590    11.8960 h1         1 O14       0.035450
     29 H10          2.6500   -21.6630    10.2100 h1         1 O14       0.030367
     30 H10A         1.9980   -21.2020     8.6240 h1         1 O14       0.030367
     31 H10B         2.5370   -19.9430     9.7620 h1         1 O14       0.030367
     32 H11          0.1760   -18.8930     9.5960 h1         1 O14       0.035450
     33 H11A        -0.2300   -20.1780     8.4500 h1         1 O14       0.035450
     34 H12         -2.2820   -19.2370     9.5230 hc         1 O14       0.057450
     35 H12A        -2.0930   -20.9510     9.8700 hc         1 O14       0.057450
     36 H13         -2.1330   -17.5700    15.7160 ha         1 O14       0.124500
     37 H14         -2.2910   -16.4020    17.8630 ha         1 O14       0.129000
     38 C10          2.0370   -20.9180     9.6840 c3         1 O14       0.151100
     39 C1          -1.6440   -13.7610    18.4210 ce         1 O14       0.659800
@<TRIPOS>BOND
     1     1     4 1   
     2     1    11 1   
     3     2    18 1   
     4     2    19 1   
     5     2    39 1   
     6     3     5 ar  
     7     3    17 ar  
     8     3    39 1   
     9     4    10 2   
    10     5     7 ar  
    11     5    20 1   
    12     6    13 1   
    13     6    14 1   
    14     6    38 1   
    15     7     9 ar  
    16     7    21 1   
    17     8    22 1   
    18     8    39 2   
    19     9    10 1   
    20     9    16 ar  
    21    10    23 1   
    22    11    12 1   
    23    11    15 1   
    24    11    24 1   
    25    12    13 1   
    26    12    25 1   
    27    12    26 1   
    28    13    27 1   
    29    13    28 1   
    30    14    15 1   
    31    14    32 1   
    32    14    33 1   
    33    15    34 1   
    34    15    35 1   
    35    16    17 ar  
    36    16    36 1   
    37    17    37 1   
    38    29    38 1   
    39    30    38 1   
    40    31    38 1   
@<TRIPOS>SUBSTRUCTURE
     1 O14         1 TEMP              0 ****  ****    0 ROOT
