@<TRIPOS>MOLECULE
O14
   39    40     1     0     0
SMALL
abcg2


@<TRIPOS>ATOM
      1 O           -1.2740   -18.2160    11.8400 os         1 O14      -0.332000
      2 N1          -2.6230   -14.3030    19.2290 nv         1 O14      -1.086200
      3 C2          -1.5740   -14.5530    17.0580 ca         1 O14      -0.129900
      4 N2          -1.4940   -17.8080    13.1460 n2         1 O14      -0.324700
      5 C3          -1.0730   -13.9050    15.9280 ca         1 O14      -0.086000
      6 N3           0.6020   -20.8510    10.2810 n3         1 O14      -0.719600
      7 C4          -0.9360   -14.5840    14.7270 ca         1 O14      -0.091500
      8 N4          -0.9590   -12.7780    18.5510 n2         1 O14      -0.827100
      9 C5          -1.2960   -15.9320    14.6210 ca         1 O14      -0.125900
     10 C6          -1.1410   -16.5960    13.3290 ce         1 O14       0.414800
     11 C7          -1.6470   -19.6050    11.6700 c6         1 O14       0.179300
     12 C8          -0.6640   -20.5330    12.3730 c6         1 O14      -0.085400
     13 C9           0.7050   -20.5220    11.7030 c6         1 O14       0.164800
     14 C11         -0.2450   -19.8840     9.5840 c6         1 O14       0.164800
     15 C12         -1.6530   -19.8600    10.1700 c6         1 O14      -0.085400
     16 C13         -1.7890   -16.5850    15.7570 ca         1 O14      -0.091500
     17 C14         -1.9280   -15.9040    16.9540 ca         1 O14      -0.086000
     18 HN1         -2.8390   -13.7410    20.0390 hn         1 O14       0.466000
     19 HN1A        -3.3890   -14.8590    18.8830 hn         1 O14       0.466000
     20 H3          -0.7980   -12.8630    15.9970 ha         1 O14       0.129000
     21 H4          -0.5530   -14.0650    13.8570 ha         1 O14       0.124500
     22 HN4         -1.1800   -12.3460    19.4480 hn         1 O14       0.370400
     23 H6          -0.7160   -16.0170    12.5090 h4         1 O14       0.006800
     24 H7          -2.6510   -19.7280    12.0830 h1         1 O14       0.055700
     25 H8          -1.0750   -21.5460    12.3440 hc         1 O14       0.057450
     26 H8A         -0.5710   -20.2460    13.4210 hc         1 O14       0.057450
     27 H9           1.3560   -21.2570    12.1790 h1         1 O14       0.035450
     28 H9A          1.1780   -19.5340    11.8400 h1         1 O14       0.035450
     29 H10          2.5180   -21.6890    10.1740 h1         1 O14       0.030367
     30 H10A         1.8210   -21.2080     8.6170 h1         1 O14       0.030367
     31 H10B         2.4640   -19.9720     9.7200 h1         1 O14       0.030367
     32 H11          0.1980   -18.8740     9.6300 h1         1 O14       0.035450
     33 H11A        -0.2910   -20.1650     8.5300 h1         1 O14       0.035450
     34 H12         -2.2560   -19.1010     9.6680 hc         1 O14       0.057450
     35 H12A        -2.1300   -20.8280    10.0000 hc         1 O14       0.057450
     36 H13         -2.0600   -17.6310    15.6980 ha         1 O14       0.124500
     37 H14         -2.2940   -16.4390    17.8200 ha         1 O14       0.129000
     38 C10          1.9180   -20.9300     9.6680 c3         1 O14       0.151100
     39 C1          -1.7120   -13.8000    18.3380 ce         1 O14       0.659800
@<TRIPOS>BOND
     1     1     4 1   
     2     1    11 1   
     3     2    18 1   
     4     2    19 1   
     5     2    39 1   
     6     3     5 ar  
     7     3    17 ar  
     8     3    39 1   
     9     4    10 2   
    10     5     7 ar  
    11     5    20 1   
    12     6    13 1   
    13     6    14 1   
    14     6    38 1   
    15     7     9 ar  
    16     7    21 1   
    17     8    22 1   
    18     8    39 2   
    19     9    10 1   
    20     9    16 ar  
    21    10    23 1   
    22    11    12 1   
    23    11    15 1   
    24    11    24 1   
    25    12    13 1   
    26    12    25 1   
    27    12    26 1   
    28    13    27 1   
    29    13    28 1   
    30    14    15 1   
    31    14    32 1   
    32    14    33 1   
    33    15    34 1   
    34    15    35 1   
    35    16    17 ar  
    36    16    36 1   
    37    17    37 1   
    38    29    38 1   
    39    30    38 1   
    40    31    38 1   
@<TRIPOS>SUBSTRUCTURE
     1 O14         1 TEMP              0 ****  ****    0 ROOT
