@<TRIPOS>MOLECULE
O15
   32    32     1     0     0
SMALL
No Charge or Current Charge


@<TRIPOS>ATOM
      1 C1          -5.4570    -0.3400     0.1580 ce         1 O15       0.667800
      2 N1          -5.8660    -1.5750    -0.2000 nv         1 O15      -1.077200
      3 O1           2.4900     0.5970    -0.0660 os         1 O15      -0.254000
      4 C2          -3.9910    -0.0290     0.0780 ca         1 O15      -0.166900
      5 N2           1.1780     0.0570    -0.0060 n2         1 O15      -0.303700
      6 O2           5.9700    -0.4130    -0.0530 o          1 O15      -0.710500
      7 C3          -3.5470     1.3110     0.0010 ca         1 O15      -0.084500
      8 N3          -6.3410     0.5240     0.4450 n2         1 O15      -0.838100
      9 O3           5.0260     1.5110    -0.1730 o          1 O15      -0.710500
     10 C4          -2.1760     1.6170    -0.0460 ca         1 O15      -0.111000
     11 C5          -1.2090     0.5950    -0.0030 ca         1 O15      -0.076900
     12 C6           0.2430     0.9540    -0.0530 ce         1 O15       0.341800
     13 C7           3.5510    -0.4130    -0.0120 c3         1 O15       0.032000
     14 C8           4.9650     0.2890    -0.0860 c          1 O15       0.732000
     15 C9           3.4270    -1.1840     1.3380 c3         1 O15      -0.084600
     16 C10          3.3840    -1.3660    -1.2360 c3         1 O15      -0.084600
     17 C11         -1.6430    -0.7440     0.0970 ca         1 O15      -0.111000
     18 C12         -3.0150    -1.0520     0.1430 ca         1 O15      -0.084500
     19 HN1         -5.1760    -2.1180    -0.7050 hn         1 O15       0.456500
     20 HN1A        -6.8130    -1.6470    -0.5530 hn         1 O15       0.456500
     21 H3          -4.2680     2.1260    -0.0310 ha         1 O15       0.117000
     22 HN3         -7.2230     0.0290     0.6140 hn         1 O15       0.358400
     23 H4          -1.8650     2.6570    -0.1140 ha         1 O15       0.126000
     24 H6           0.4810     2.0180    -0.1300 h4         1 O15       0.004800
     25 H9           2.4940    -1.7560     1.4000 hc         1 O15       0.026867
     26 H9A          4.2520    -1.8980     1.4530 hc         1 O15       0.026867
     27 H9B          3.4640    -0.4880     2.1840 hc         1 O15       0.026867
     28 H10          3.3910    -0.7950    -2.1720 hc         1 O15       0.026867
     29 H10A         4.2060    -2.0900    -1.2770 hc         1 O15       0.026867
     30 H10B         2.4510    -1.9390    -1.1850 hc         1 O15       0.026867
     31 H11         -0.9200    -1.5560     0.1450 ha         1 O15       0.126000
     32 H12         -3.3080    -2.0950     0.2420 ha         1 O15       0.117000
@<TRIPOS>BOND
     1     1     2 1   
     2     1     4 1   
     3     1     8 2   
     4     2    19 1   
     5     2    20 1   
     6     3     5 1   
     7     3    13 1   
     8     4     7 ar  
     9     4    18 ar  
    10     5    12 2   
    11     6    14 1   
    12     7    10 ar  
    13     7    21 1   
    14     8    22 1   
    15     9    14 1   
    16    10    11 ar  
    17    10    23 1   
    18    11    12 1   
    19    11    17 ar  
    20    12    24 1   
    21    13    14 1   
    22    13    15 1   
    23    13    16 1   
    24    15    25 1   
    25    15    26 1   
    26    15    27 1   
    27    16    28 1   
    28    16    29 1   
    29    16    30 1   
    30    17    18 ar  
    31    17    31 1   
    32    18    32 1   
@<TRIPOS>SUBSTRUCTURE
     1 O15         1 TEMP              0 ****  ****    0 ROOT
