@<TRIPOS>MOLECULE
O15
   32    32     1     0     0
SMALL
bcc


@<TRIPOS>ATOM
      1 C1          -5.3450    -0.3440     0.1290 ce         1 O15       0.667800
      2 N1          -5.6820    -1.6250    -0.2060 nv         1 O15      -0.966800
      3 O1           2.4100     0.5950    -0.0790 os         1 O15      -0.132300
      4 C2          -3.8880    -0.0400     0.0950 ca         1 O15      -0.166900
      5 N2           1.1660     0.0750    -0.0110 n2         1 O15      -0.402200
      6 O2           5.7840    -0.4130    -0.0440 o          1 O15      -0.815800
      7 C3          -3.4680     1.2810    -0.0260 ca         1 O15      -0.102500
      8 N3          -6.1530     0.5730     0.5030 n2         1 O15      -0.838100
      9 O3           4.7640     1.5680    -0.0930 o          1 O15      -0.815800
     10 C4          -2.1190     1.5920    -0.0620 ca         1 O15      -0.129000
     11 C5          -1.1520     0.5900     0.0280 ca         1 O15      -0.076900
     12 C6           0.2600     0.9640    -0.0280 ce         1 O15       0.341800
     13 C7           3.4230    -0.4240    -0.0240 c3         1 O15       0.008800
     14 C8           4.7820     0.3270    -0.0590 c          1 O15       0.942600
     15 C9           3.3090    -1.2150     1.2760 c3         1 O15      -0.084600
     16 C10          3.3050    -1.3470    -1.2310 c3         1 O15      -0.084600
     17 C11         -1.5730    -0.7340     0.1620 ca         1 O15      -0.129000
     18 C12         -2.9210    -1.0430     0.1930 ca         1 O15      -0.102500
     19 HN1         -5.0860    -2.1240    -0.8450 hn         1 O15       0.401300
     20 HN1A        -6.6620    -1.8260    -0.3300 hn         1 O15       0.401300
     21 H3          -4.2060     2.0680    -0.1000 ha         1 O15       0.135000
     22 HN3         -7.1170     0.2550     0.4530 hn         1 O15       0.358400
     23 H4          -1.8140     2.6260    -0.1690 ha         1 O15       0.144000
     24 H6           0.4950     2.0270    -0.0960 h4         1 O15       0.004800
     25 H9           2.3690    -1.7680     1.3220 hc         1 O15       0.026867
     26 H9A          4.1240    -1.9330     1.3430 hc         1 O15       0.026867
     27 H9B          3.3630    -0.5610     2.1480 hc         1 O15       0.026867
     28 H10          3.3700    -0.7900    -2.1680 hc         1 O15       0.026867
     29 H10A         4.1110    -2.0780    -1.2190 hc         1 O15       0.026867
     30 H10B         2.3580    -1.8890    -1.2230 hc         1 O15       0.026867
     31 H11         -0.8410    -1.5260     0.2450 ha         1 O15       0.144000
     32 H12         -3.2120    -2.0780     0.3160 ha         1 O15       0.135000
@<TRIPOS>BOND
     1     1     2 1   
     2     1     4 1   
     3     1     8 2   
     4     2    19 1   
     5     2    20 1   
     6     3     5 1   
     7     3    13 1   
     8     4     7 ar  
     9     4    18 ar  
    10     5    12 2   
    11     6    14 1   
    12     7    10 ar  
    13     7    21 1   
    14     8    22 1   
    15     9    14 1   
    16    10    11 ar  
    17    10    23 1   
    18    11    12 1   
    19    11    17 ar  
    20    12    24 1   
    21    13    14 1   
    22    13    15 1   
    23    13    16 1   
    24    15    25 1   
    25    15    26 1   
    26    15    27 1   
    27    16    28 1   
    28    16    29 1   
    29    16    30 1   
    30    17    18 ar  
    31    17    31 1   
    32    18    32 1   
@<TRIPOS>SUBSTRUCTURE
     1 O15         1 TEMP              0 ****  ****    0 ROOT
