@<TRIPOS>MOLECULE
O16
   50    55     1     0     0
SMALL
No Charge or Current Charge


@<TRIPOS>ATOM
      1 O1          34.8380    27.8860    43.2930 o          1 O16      -0.510000
      2 C1          34.2330    26.8820    43.6370 c          1 O16       0.567600
      3 N1          34.6400    25.6290    43.2210 ns         1 O16      -0.350500
      4 N2          33.9710    24.4200    43.5880 ns         1 O16      -0.348500
      5 C2          32.8530    24.3820    44.3980 c          1 O16       0.573600
      6 O2          32.3200    23.3210    44.6840 o          1 O16      -0.521000
      7 C3          32.3500    25.7170    44.8930 ca         1 O16      -0.109600
      8 C4          31.2110    25.7750    45.7260 ca         1 O16      -0.020000
      9 C5          30.7300    27.0090    46.2050 ca         1 O16      -0.072200
     10 N3          29.6010    27.0320    47.0340 na         1 O16       0.248000
     11 N4          28.4310    27.1230    46.3580 nc         1 O16      -0.409800
     12 C6          27.7230    27.9810    47.1340 cc         1 O16       0.615800
     13 C7          26.3710    28.3490    46.7470 ce         1 O16      -0.358800
     14 C8          25.6750    27.9320    45.6470 cf         1 O16      -0.004200
     15 C9          24.3040    28.2850    45.2200 ca         1 O16      -0.119800
     16 C10         23.7860    27.7280    44.0310 ca         1 O16      -0.065500
     17 C11         22.4860    28.0430    43.5990 ca         1 O16      -0.113500
     18 C12         21.6880    28.9210    44.3500 ca         1 O16      -0.061000
     19 C13         22.1930    29.4810    45.5340 ca         1 O16      -0.113500
     20 C14         23.4930    29.1670    45.9680 ca         1 O16      -0.065500
     21 N5          28.3030    28.4880    48.1970 nd         1 O16      -0.375800
     22 N6          29.5280    27.8610    48.1570 na         1 O16       0.203000
     23 C15         30.5330    27.7460    49.1370 cc         1 O16       0.362700
     24 N7          30.4400    28.5640    50.1950 nd         1 O16      -0.441100
     25 C16         31.4950    28.2250    51.0350 ca         1 O16       0.078400
     26 C17         31.7540    28.8690    52.2560 ca         1 O16      -0.020000
     27 C18         32.8500    28.4530    53.0400 ca         1 O16      -0.097000
     28 C19         33.6770    27.3970    52.6010 ca         1 O16      -0.049000
     29 C20         33.4100    26.7540    51.3770 ca         1 O16      -0.077000
     30 C21         32.3140    27.1880    50.6140 ca         1 O16      -0.165000
     31 S1          31.8150    26.5110    49.0680 ss         1 O16       0.134800
     32 C22         31.3860    28.2000    45.8290 ca         1 O16      -0.054000
     33 C23         32.5190    28.1520    45.0010 ca         1 O16      -0.049000
     34 C24         33.0120    26.9170    44.5280 ca         1 O16      -0.067600
     35 HN1         35.4550    25.5660    42.6130 hn         1 O16       0.369500
     36 HN2         34.3420    23.5370    43.2410 hn         1 O16       0.369500
     37 H4          30.6960    24.8550    46.0050 ha         1 O16       0.173000
     38 H7          25.9070    29.0400    47.4460 ha         1 O16       0.224000
     39 H8          26.1790    27.2390    44.9680 ha         1 O16       0.185000
     40 H10         24.3910    27.0460    43.4370 ha         1 O16       0.116500
     41 H11         22.0980    27.6070    42.6810 ha         1 O16       0.129500
     42 H12         20.6820    29.1650    44.0150 ha         1 O16       0.130000
     43 H13         21.5760    30.1620    46.1180 ha         1 O16       0.129500
     44 H14         23.8560    29.6150    46.8880 ha         1 O16       0.116500
     45 H17         31.1150    29.6820    52.5910 ha         1 O16       0.153000
     46 H18         33.0580    28.9480    53.9860 ha         1 O16       0.145000
     47 H19         34.5220    27.0790    53.2090 ha         1 O16       0.141000
     48 H20         34.0420    25.9380    51.0330 ha         1 O16       0.143000
     49 H22         31.0220    29.1680    46.1710 ha         1 O16       0.154000
     50 H23         33.0130    29.0810    44.7230 ha         1 O16       0.176000
@<TRIPOS>BOND
     1     1     2 2   
     2     2     3 1   
     3     2    34 1   
     4     3     4 1   
     5     3    35 1   
     6     4     5 1   
     7     4    36 1   
     8     5     6 2   
     9     5     7 1   
    10     7     8 ar  
    11     7    34 ar  
    12     8     9 ar  
    13     8    37 1   
    14     9    10 1   
    15     9    32 ar  
    16    10    11 2   
    17    10    22 1   
    18    11    12 1   
    19    12    13 1   
    20    12    21 2   
    21    13    14 2   
    22    13    38 1   
    23    14    15 1   
    24    14    39 1   
    25    15    16 ar  
    26    15    20 ar  
    27    16    17 ar  
    28    16    40 1   
    29    17    18 ar  
    30    17    41 1   
    31    18    19 ar  
    32    18    42 1   
    33    19    20 ar  
    34    19    43 1   
    35    20    44 1   
    36    21    22 1   
    37    22    23 1   
    38    23    24 2   
    39    23    31 1   
    40    24    25 1   
    41    25    26 ar  
    42    25    30 ar  
    43    26    27 ar  
    44    26    45 1   
    45    27    28 ar  
    46    27    46 1   
    47    28    29 ar  
    48    28    47 1   
    49    29    30 ar  
    50    29    48 1   
    51    30    31 1   
    52    32    33 ar  
    53    32    49 1   
    54    33    34 ar  
    55    33    50 1   
@<TRIPOS>SUBSTRUCTURE
     1 O16         1 TEMP              0 ****  ****    0 ROOT
