@<TRIPOS>MOLECULE
O16
   50    55     1     0     0
SMALL
abcg2


@<TRIPOS>ATOM
      1 O1          35.2720    27.3040    43.4170 o          1 O16      -0.510000
      2 C1          34.5080    26.4470    43.8550 c          1 O16       0.567600
      3 N1          34.7710    25.1290    43.7240 ns         1 O16      -0.350500
      4 N2          33.9650    24.1120    44.1970 ns         1 O16      -0.348500
      5 C2          32.7980    24.2990    44.8500 c          1 O16       0.573600
      6 O2          32.1200    23.3550    45.2510 o          1 O16      -0.521000
      7 C3          32.4220    25.7200    45.0320 ca         1 O16      -0.109600
      8 C4          31.2330    26.0190    45.6910 ca         1 O16      -0.020000
      9 C5          30.9030    27.3480    45.8570 ca         1 O16      -0.072200
     10 N3          29.6770    27.6630    46.5390 na         1 O16       0.248000
     11 N4          28.5300    27.7890    45.9430 nc         1 O16      -0.409800
     12 C6          27.6570    28.0790    46.9340 cc         1 O16       0.615800
     13 C7          26.2470    28.3090    46.7710 ce         1 O16      -0.358800
     14 C8          25.6340    28.2150    45.5800 cf         1 O16      -0.004200
     15 C9          24.2210    28.4300    45.3090 ca         1 O16      -0.119800
     16 C10         23.7640    28.2680    43.9930 ca         1 O16      -0.065500
     17 C11         22.4260    28.4580    43.6760 ca         1 O16      -0.113500
     18 C12         21.5210    28.8140    44.6700 ca         1 O16      -0.061000
     19 C13         21.9620    28.9790    45.9830 ca         1 O16      -0.113500
     20 C14         23.2960    28.7890    46.3020 ca         1 O16      -0.065500
     21 N5          28.2790    28.1260    48.1270 nd         1 O16      -0.375800
     22 N6          29.5320    27.8650    47.8590 na         1 O16       0.203000
     23 C15         30.5400    27.8160    48.8560 cc         1 O16       0.362700
     24 N7          30.2240    28.1400    50.0610 nd         1 O16      -0.441100
     25 C16         31.3140    28.0160    50.8890 ca         1 O16       0.078400
     26 C17         31.3270    28.2860    52.2620 ca         1 O16      -0.020000
     27 C18         32.5080    28.1080    52.9550 ca         1 O16      -0.097000
     28 C19         33.6730    27.6700    52.3040 ca         1 O16      -0.049000
     29 C20         33.6840    27.3990    50.9460 ca         1 O16      -0.077000
     30 C21         32.4940    27.5760    50.2470 ca         1 O16      -0.165000
     31 S1          32.1870    27.3180    48.5550 ss         1 O16       0.134800
     32 C22         31.6880    28.3980    45.3860 ca         1 O16      -0.054000
     33 C23         32.8660    28.0880    44.7330 ca         1 O16      -0.049000
     34 C24         33.2380    26.7540    44.5580 ca         1 O16      -0.067600
     35 HN1         35.6150    24.8260    43.2570 hn         1 O16       0.369500
     36 HN2         34.3050    23.1760    44.0220 hn         1 O16       0.369500
     37 H4          30.5990    25.2290    46.0670 ha         1 O16       0.173000
     38 H7          25.7210    28.5580    47.6830 ha         1 O16       0.224000
     39 H8          26.2330    27.9530    44.7140 ha         1 O16       0.185000
     40 H10         24.4710    27.9910    43.2210 ha         1 O16       0.116500
     41 H11         22.0900    28.3290    42.6550 ha         1 O16       0.129500
     42 H12         20.4770    28.9630    44.4260 ha         1 O16       0.130000
     43 H13         21.2590    29.2560    46.7580 ha         1 O16       0.129500
     44 H14         23.6190    28.9220    47.3260 ha         1 O16       0.116500
     45 H17         30.4230    28.6230    52.7520 ha         1 O16       0.153000
     46 H18         32.5400    28.3100    54.0180 ha         1 O16       0.145000
     47 H19         34.5830    27.5410    52.8750 ha         1 O16       0.141000
     48 H20         34.5840    27.0620    50.4480 ha         1 O16       0.143000
     49 H22         31.3790    29.4220    45.5410 ha         1 O16       0.154000
     50 H23         33.5080    28.8700    44.3540 ha         1 O16       0.176000
@<TRIPOS>BOND
     1     1     2 2   
     2     2     3 1   
     3     2    34 1   
     4     3     4 1   
     5     3    35 1   
     6     4     5 1   
     7     4    36 1   
     8     5     6 2   
     9     5     7 1   
    10     7     8 ar  
    11     7    34 ar  
    12     8     9 ar  
    13     8    37 1   
    14     9    10 1   
    15     9    32 ar  
    16    10    11 2   
    17    10    22 1   
    18    11    12 1   
    19    12    13 1   
    20    12    21 2   
    21    13    14 2   
    22    13    38 1   
    23    14    15 1   
    24    14    39 1   
    25    15    16 ar  
    26    15    20 ar  
    27    16    17 ar  
    28    16    40 1   
    29    17    18 ar  
    30    17    41 1   
    31    18    19 ar  
    32    18    42 1   
    33    19    20 ar  
    34    19    43 1   
    35    20    44 1   
    36    21    22 1   
    37    22    23 1   
    38    23    24 2   
    39    23    31 1   
    40    24    25 1   
    41    25    26 ar  
    42    25    30 ar  
    43    26    27 ar  
    44    26    45 1   
    45    27    28 ar  
    46    27    46 1   
    47    28    29 ar  
    48    28    47 1   
    49    29    30 ar  
    50    29    48 1   
    51    30    31 1   
    52    32    33 ar  
    53    32    49 1   
    54    33    34 ar  
    55    33    50 1   
@<TRIPOS>SUBSTRUCTURE
     1 O16         1 TEMP              0 ****  ****    0 ROOT
