@<TRIPOS>MOLECULE
O17
   75    79     1     0     0
SMALL
bcc


@<TRIPOS>ATOM
      1 N6          -4.0850    -5.0910     2.1640 n1         1 O17      -0.330800
      2 C29         -3.3480    -4.2860     1.8070 c1         1 O17       0.203700
      3 C28         -2.3910    -3.2780     1.3590 c3         1 O17       0.209500
      4 O2          -3.1420    -2.2040     0.8560 os         1 O17      -0.305900
      5 C27         -2.4910    -1.1550     0.3050 ca         1 O17       0.189100
      6 C6          -3.3050    -0.1390    -0.2300 ca         1 O17      -0.125800
      7 C5          -4.7550    -0.2600    -0.2100 ce         1 O17      -0.011200
      8 C4          -5.6350     0.6280    -0.6890 cf         1 O17      -0.261200
      9 C3          -7.0880     0.3630    -0.6170 c          1 O17       0.669300
     10 O1          -7.5600    -0.6480    -0.1040 o          1 O17      -0.614100
     11 N           -7.8540     1.3170    -1.1790 ns         1 O17      -0.565900
     12 C2          -9.2970     1.2640    -1.1970 c3         1 O17       0.106000
     13 C1          -9.9400     1.8670     0.0360 c3         1 O17       0.106400
     14 O           -9.6240     3.2340     0.0940 os         1 O17      -0.415600
     15 C          -10.1440     3.8610     1.2380 c3         1 O17       0.123700
     16 C26         -1.1070    -1.0690     0.2810 ca         1 O17      -0.272000
     17 C9          -0.4850     0.0330    -0.3090 ca         1 O17       0.233600
     18 C8          -1.2750     1.0640    -0.8240 ca         1 O17      -0.220000
     19 C7          -2.6480     0.9670    -0.7740 ca         1 O17      -0.044000
     20 N1           0.8890     0.1760    -0.3520 nu         1 O17      -0.755300
     21 C10          1.8780    -0.7690    -0.4540 ca         1 O17       0.781200
     22 N5           3.0960    -0.2490    -0.2870 nb         1 O17      -0.862000
     23 C15          4.1540    -1.0380    -0.3880 ca         1 O17       0.814200
     24 C13          4.0200    -2.4340    -0.6390 ca         1 O17      -0.368300
     25 C14          5.1490    -3.2700    -0.6950 cg         1 O17       0.258800
     26 N3           6.0800    -3.9570    -0.7440 n1         1 O17      -0.413800
     27 C12          2.7270    -2.9690    -0.8400 ca         1 O17       0.333600
     28 N2           2.5480    -4.2770    -1.0910 nv         1 O17      -0.852200
     29 C11          1.6330    -2.1040    -0.7500 ca         1 O17      -0.461300
     30 N4           5.3800    -0.5040    -0.2490 nu         1 O17      -0.870900
     31 C16          5.7330     0.8780     0.0680 c6         1 O17       0.267200
     32 C25          5.2530     1.8620    -1.0080 c6         1 O17      -0.081733
     33 C20          5.7260     3.2790    -0.6680 c6         1 O17      -0.056367
     34 C19          7.2550     3.3110    -0.6250 c6         1 O17      -0.070733
     35 C21          5.1680     3.6920     0.6950 c6         1 O17      -0.070733
     36 C22          5.6710     2.7250     1.7690 c6         1 O17      -0.056367
     37 C24          5.1980     1.3060     1.4420 c6         1 O17      -0.081733
     38 C23          7.1990     2.7580     1.8100 c6         1 O17      -0.070733
     39 C18          7.7500     2.3380     0.4460 c6         1 O17      -0.056367
     40 C17          7.2670     0.9260     0.1130 c6         1 O17      -0.081733
     41 H1          -1.7680    -2.9930     2.2130 h1         1 O17       0.065200
     42 H2          -1.7440    -3.7310     0.6000 h1         1 O17       0.065200
     43 H3          -5.1640    -1.1620     0.2300 ha         1 O17       0.163000
     44 H5          -5.3180     1.5580    -1.1480 ha         1 O17       0.122000
     45 H7          -7.4110     2.1460    -1.5370 hn         1 O17       0.318500
     46 H8          -9.6440     1.7870    -2.0890 h1         1 O17       0.062200
     47 H9          -9.6190     0.2270    -1.2890 h1         1 O17       0.062200
     48 H10        -11.0270     1.7130    -0.0210 h1         1 O17       0.035200
     49 H11         -9.5870     1.3430     0.9360 h1         1 O17       0.035200
     50 H12         -9.7430     3.4280     2.1620 h1         1 O17       0.028367
     51 H13         -9.8650     4.9140     1.2020 h1         1 O17       0.028367
     52 H14        -11.2380     3.7960     1.2840 h1         1 O17       0.028367
     53 H15         -0.4980    -1.8270     0.7510 ha         1 O17       0.151000
     54 H16         -0.8080     1.9300    -1.2720 ha         1 O17       0.140000
     55 H17         -3.2300     1.7790    -1.1910 ha         1 O17       0.138000
     56 H18          1.2380     1.1230    -0.3970 hn         1 O17       0.455800
     57 H19          3.3190    -4.8660    -1.3590 hn         1 O17       0.433300
     58 H20          1.6370    -4.6080    -1.3590 hn         1 O17       0.433300
     59 H21          0.6410    -2.4740    -0.9620 ha         1 O17       0.147000
     60 H22          6.1590    -1.1390    -0.3180 hn         1 O17       0.445800
     61 H23          5.6470     1.5520    -1.9820 hc         1 O17       0.052700
     62 H24          4.1650     1.8360    -1.0790 hc         1 O17       0.052700
     63 H25          5.3650     3.9670    -1.4380 hc         1 O17       0.052033
     64 H26          7.6660     3.0370    -1.6030 hc         1 O17       0.042033
     65 H27          7.6090     4.3240    -0.4080 hc         1 O17       0.042033
     66 H28          5.4780     4.7150     0.9340 hc         1 O17       0.042033
     67 H29          4.0730     3.6910     0.6710 hc         1 O17       0.042033
     68 H30          5.2700     3.0170     2.7440 hc         1 O17       0.052033
     69 H31          4.1080     1.2610     1.4450 hc         1 O17       0.052700
     70 H32          5.5600     0.6050     2.2010 hc         1 O17       0.052700
     71 H33          7.5520     3.7630     2.0630 hc         1 O17       0.042033
     72 H34          7.5710     2.0880     2.5920 hc         1 O17       0.042033
     73 H35          8.8430     2.3410     0.4710 hc         1 O17       0.052033
     74 H36          7.6340     0.2200     0.8660 hc         1 O17       0.052700
     75 H37          7.6740     0.6080    -0.8540 hc         1 O17       0.052700
@<TRIPOS>BOND
     1     1     2 3   
     2     2     3 1   
     3     3     4 1   
     4     3    41 1   
     5     3    42 1   
     6     4     5 1   
     7     5     6 ar  
     8     5    16 ar  
     9     6     7 1   
    10     6    19 ar  
    11     7     8 2   
    12     7    43 1   
    13     8     9 1   
    14     8    44 1   
    15     9    10 2   
    16     9    11 1   
    17    11    12 1   
    18    11    45 1   
    19    12    13 1   
    20    12    46 1   
    21    12    47 1   
    22    13    14 1   
    23    13    48 1   
    24    13    49 1   
    25    14    15 1   
    26    15    50 1   
    27    15    51 1   
    28    15    52 1   
    29    16    17 ar  
    30    16    53 1   
    31    17    18 ar  
    32    17    20 1   
    33    18    19 ar  
    34    18    54 1   
    35    19    55 1   
    36    20    21 1   
    37    20    56 1   
    38    21    22 ar  
    39    21    29 ar  
    40    22    23 ar  
    41    23    24 ar  
    42    23    30 1   
    43    24    25 1   
    44    24    27 ar  
    45    25    26 3   
    46    27    28 1   
    47    27    29 ar  
    48    28    57 1   
    49    28    58 1   
    50    29    59 1   
    51    30    31 1   
    52    30    60 1   
    53    31    32 1   
    54    31    37 1   
    55    31    40 1   
    56    32    33 1   
    57    32    61 1   
    58    32    62 1   
    59    33    34 1   
    60    33    35 1   
    61    33    63 1   
    62    34    39 1   
    63    34    64 1   
    64    34    65 1   
    65    35    36 1   
    66    35    66 1   
    67    35    67 1   
    68    36    37 1   
    69    36    38 1   
    70    36    68 1   
    71    37    69 1   
    72    37    70 1   
    73    38    39 1   
    74    38    71 1   
    75    38    72 1   
    76    39    40 1   
    77    39    73 1   
    78    40    74 1   
    79    40    75 1   
@<TRIPOS>SUBSTRUCTURE
     1 O17         1 TEMP              0 ****  ****    0 ROOT
