@<TRIPOS>MOLECULE
O17
   75    79     1     0     0
SMALL
No Charge or Current Charge


@<TRIPOS>ATOM
      1 N6          -4.3980    -5.8370     0.7440 n1         1 O17      -0.420000
      2 C29         -3.6370    -4.9550     0.6800 c1         1 O17       0.292900
      3 C28         -2.6510    -3.8660     0.6050 c3         1 O17       0.232700
      4 O2          -3.3300    -2.6110     0.3850 os         1 O17      -0.329100
      5 C27         -2.6580    -1.4100     0.2610 ca         1 O17       0.189100
      6 C6          -3.4130    -0.2350     0.0320 ca         1 O17      -0.125800
      7 C5          -4.9060    -0.2940    -0.0690 ce         1 O17      -0.061200
      8 C4          -5.7590     0.6360    -0.5930 cf         1 O17      -0.311200
      9 C3          -7.2320     0.4700    -0.6420 c          1 O17       0.602300
     10 O1          -7.8010    -0.5210    -0.2100 o          1 O17      -0.614100
     11 N           -7.9090     1.5160    -1.2170 ns         1 O17      -0.498900
     12 C2          -9.3730     1.6080    -1.3210 c3         1 O17       0.106000
     13 C1         -10.0630     1.9460     0.0220 c3         1 O17       0.129600
     14 O           -9.6050     3.2400     0.4610 os         1 O17      -0.462000
     15 C          -10.1620     3.6750     1.7130 c3         1 O17       0.146900
     16 C26         -1.2520    -1.3380     0.3550 ca         1 O17      -0.254000
     17 C9          -0.5950    -0.1090     0.2140 ca         1 O17       0.372000
     18 C8          -1.3410     1.0560     0.0150 ca         1 O17      -0.202000
     19 C7          -2.7400     0.9980    -0.0820 ca         1 O17      -0.026000
     20 N1           0.7820    -0.0100     0.3180 nu         1 O17      -0.948900
     21 C10          1.8230    -0.8210     0.0430 ca         1 O17       0.715900
     22 N5           2.9220    -0.3120     0.5500 nb         1 O17      -0.862000
     23 C15          4.0450    -0.9870     0.3340 ca         1 O17       0.748900
     24 C13          4.1170    -2.1800    -0.3820 ca         1 O17      -0.303000
     25 C14          5.3640    -2.8500    -0.5690 cg         1 O17       0.348000
     26 N3           6.3890    -3.3880    -0.7110 n1         1 O17      -0.503000
     27 C12          2.9330    -2.6670    -0.9260 ca         1 O17       0.472000
     28 N2           2.8800    -3.8070    -1.6670 nv         1 O17      -1.101000
     29 C11          1.7590    -1.9730    -0.7190 ca         1 O17      -0.378000
     30 N4           5.1500    -0.4070     0.9190 nu         1 O17      -0.926100
     31 C16          5.6890     0.9200     0.5690 c6         1 O17       0.267200
     32 C25          5.4590     1.2680    -0.9400 c6         1 O17      -0.081733
     33 C20          6.0890     2.6530    -1.2710 c6         1 O17      -0.056367
     34 C19          7.6180     2.6060    -0.9900 c6         1 O17      -0.070733
     35 C21          5.4320     3.7450    -0.3760 c6         1 O17      -0.070733
     36 C22          5.6780     3.4150     1.1260 c6         1 O17      -0.056367
     37 C24          5.0490     2.0300     1.4620 c6         1 O17      -0.081733
     38 C23          7.2090     3.3660     1.3990 c6         1 O17      -0.070733
     39 C18          7.8640     2.2710     0.5090 c6         1 O17      -0.056367
     40 C17          7.2260     0.8910     0.8400 c6         1 O17      -0.081733
     41 H1          -2.0860    -3.8450     1.5440 h1         1 O17       0.065200
     42 H2          -1.9570    -4.0830    -0.2170 h1         1 O17       0.065200
     43 H3          -5.3490    -1.2110     0.3270 ha         1 O17       0.213000
     44 H5          -5.3620     1.5560    -1.0130 ha         1 O17       0.172000
     45 H7          -7.3550     2.3030    -1.5300 hn         1 O17       0.318500
     46 H8          -9.6280     2.3780    -2.0600 h1         1 O17       0.062200
     47 H9          -9.7630     0.6500    -1.6930 h1         1 O17       0.062200
     48 H10        -11.1510     1.9500    -0.1260 h1         1 O17       0.035200
     49 H11         -9.8210     1.1730     0.7640 h1         1 O17       0.035200
     50 H12         -9.9050     2.9750     2.5180 h1         1 O17       0.028367
     51 H13         -9.7710     4.6640     1.9810 h1         1 O17       0.028367
     52 H14        -11.2560     3.7460     1.6490 h1         1 O17       0.028367
     53 H15         -0.6620    -2.2220     0.5620 ha         1 O17       0.133000
     54 H16         -0.8380     2.0140    -0.0760 ha         1 O17       0.122000
     55 H17         -3.2930     1.9210    -0.2360 ha         1 O17       0.120000
     56 H18          1.1350     0.8760     0.6550 hn         1 O17       0.511000
     57 H19          3.7460    -4.2220    -2.0030 hn         1 O17       0.488500
     58 H20          2.0380    -4.0090    -2.2010 hn         1 O17       0.488500
     59 H21          0.8250    -2.3080    -1.1520 ha         1 O17       0.129000
     60 H22          5.8480    -1.1060     1.1470 hn         1 O17       0.501000
     61 H23          5.8980     0.4930    -1.5820 hc         1 O17       0.052700
     62 H24          4.3870     1.2970    -1.1750 hc         1 O17       0.052700
     63 H25          5.9160     2.8920    -2.3290 hc         1 O17       0.052033
     64 H26          8.0990     1.8530    -1.6310 hc         1 O17       0.042033
     65 H27          8.0800     3.5700    -1.2440 hc         1 O17       0.042033
     66 H28          5.8470     4.7330    -0.6190 hc         1 O17       0.042033
     67 H29          4.3540     3.8040    -0.5790 hc         1 O17       0.042033
     68 H30          5.2170     4.1900     1.7540 hc         1 O17       0.052033
     69 H31          3.9640     2.0750     1.3050 hc         1 O17       0.052700
     70 H32          5.1990     1.7960     2.5240 hc         1 O17       0.052700
     71 H33          7.6630     4.3450     1.1910 hc         1 O17       0.042033
     72 H34          7.3990     3.1570     2.4610 hc         1 O17       0.042033
     73 H35          8.9450     2.2350     0.7050 hc         1 O17       0.052033
     74 H36          7.4240     0.6350     1.8900 hc         1 O17       0.052700
     75 H37          7.7050     0.1080     0.2350 hc         1 O17       0.052700
@<TRIPOS>BOND
     1     1     2 3   
     2     2     3 1   
     3     3     4 1   
     4     3    41 1   
     5     3    42 1   
     6     4     5 1   
     7     5     6 ar  
     8     5    16 ar  
     9     6     7 1   
    10     6    19 ar  
    11     7     8 2   
    12     7    43 1   
    13     8     9 1   
    14     8    44 1   
    15     9    10 2   
    16     9    11 1   
    17    11    12 1   
    18    11    45 1   
    19    12    13 1   
    20    12    46 1   
    21    12    47 1   
    22    13    14 1   
    23    13    48 1   
    24    13    49 1   
    25    14    15 1   
    26    15    50 1   
    27    15    51 1   
    28    15    52 1   
    29    16    17 ar  
    30    16    53 1   
    31    17    18 ar  
    32    17    20 1   
    33    18    19 ar  
    34    18    54 1   
    35    19    55 1   
    36    20    21 1   
    37    20    56 1   
    38    21    22 ar  
    39    21    29 ar  
    40    22    23 ar  
    41    23    24 ar  
    42    23    30 1   
    43    24    25 1   
    44    24    27 ar  
    45    25    26 3   
    46    27    28 1   
    47    27    29 ar  
    48    28    57 1   
    49    28    58 1   
    50    29    59 1   
    51    30    31 1   
    52    30    60 1   
    53    31    32 1   
    54    31    37 1   
    55    31    40 1   
    56    32    33 1   
    57    32    61 1   
    58    32    62 1   
    59    33    34 1   
    60    33    35 1   
    61    33    63 1   
    62    34    39 1   
    63    34    64 1   
    64    34    65 1   
    65    35    36 1   
    66    35    66 1   
    67    35    67 1   
    68    36    37 1   
    69    36    38 1   
    70    36    68 1   
    71    37    69 1   
    72    37    70 1   
    73    38    39 1   
    74    38    71 1   
    75    38    72 1   
    76    39    40 1   
    77    39    73 1   
    78    40    74 1   
    79    40    75 1   
@<TRIPOS>SUBSTRUCTURE
     1 O17         1 TEMP              0 ****  ****    0 ROOT
