@<TRIPOS>MOLECULE
O18
   58    57     1     0     0
SMALL
No Charge or Current Charge


@<TRIPOS>ATOM
      1 C43         19.9550    10.9500   -11.5520 c3         1 O18       0.033500
      2 C44         20.7720    11.4310   -10.3200 c3         1 O18       0.171600
      3 C45         20.3880    12.3990    -8.1460 c          1 O18       0.594100
      4 C46         19.2980    12.8530    -7.1730 c3         1 O18      -0.133400
      5 C47         18.9440    11.7350    -6.1630 c3         1 O18      -0.070400
      6 C48         17.8390    12.1490    -5.1670 c3         1 O18      -0.078400
      7 C49         17.4900    11.0320    -4.1550 c3         1 O18      -0.073400
      8 C50         16.3270    11.3780    -3.1960 c3         1 O18      -0.073400
      9 C51         16.6290    12.5390    -2.2160 c3         1 O18      -0.070400
     10 C52         15.5050    12.7950    -1.1890 c3         1 O18      -0.042200
     11 C53         14.2010    13.2340    -1.8320 c2         1 O18      -0.218200
     12 C54         13.7940    14.4980    -2.0480 c2         1 O18      -0.216200
     13 C55         14.5620    15.7670    -1.7320 c3         1 O18      -0.043200
     14 C56         14.1100    16.4030    -0.4010 c3         1 O18      -0.074400
     15 C57         14.8810    17.6990    -0.0560 c3         1 O18      -0.073400
     16 C58         14.5170    18.3160     1.3160 c3         1 O18      -0.074400
     17 C59         13.0660    18.8400     1.4180 c3         1 O18      -0.076400
     18 C60         12.7680    19.5250     2.7660 c3         1 O18      -0.089100
     19 C61         19.0800     9.7180   -11.1570 c          1 O18       0.587900
     20 N13         19.2180    12.0800   -12.2440 n8         1 O18      -0.987200
     21 O10         19.8590    11.9040    -9.3090 os         1 O18      -0.437100
     22 O11         21.5850    12.4640    -7.9020 o          1 O18      -0.492000
     23 O15         19.0010     8.6980   -11.8390 o          1 O18      -0.515100
     24 H1          20.6870    10.5660   -12.2760 h1         1 O18       0.051700
     25 H2          21.3770    10.5980    -9.9370 h1         1 O18       0.058700
     26 H3          21.4580    12.2310   -10.6290 h1         1 O18       0.058700
     27 H4          19.6490    13.7350    -6.6260 hc         1 O18       0.073200
     28 H5          18.3880    13.0860    -7.7390 hc         1 O18       0.073200
     29 H6          18.6200    10.8420    -6.7130 hc         1 O18       0.052200
     30 H7          19.8470    11.4560    -5.6050 hc         1 O18       0.052200
     31 H8          18.1700    13.0440    -4.6260 hc         1 O18       0.039200
     32 H9          16.9360    12.4260    -5.7240 hc         1 O18       0.039200
     33 H10         17.2190    10.1260    -4.7110 hc         1 O18       0.038700
     34 H11         18.3820    10.7820    -3.5660 hc         1 O18       0.038700
     35 H12         15.4360    11.6190    -3.7880 hc         1 O18       0.039200
     36 H13         16.0820    10.4810    -2.6130 hc         1 O18       0.039200
     37 H14         17.5550    12.3160    -1.6730 hc         1 O18       0.039200
     38 H15         16.8050    13.4630    -2.7790 hc         1 O18       0.039200
     39 H16         15.3410    11.8870    -0.5950 hc         1 O18       0.043700
     40 H17         15.8520    13.5540    -0.4770 hc         1 O18       0.043700
     41 H18         13.5500    12.4050    -2.1160 ha         1 O18       0.165000
     42 H19         12.8220    14.6770    -2.5120 ha         1 O18       0.164000
     43 H20         15.6400    15.5680    -1.6840 hc         1 O18       0.044700
     44 H21         14.4260    16.4920    -2.5450 hc         1 O18       0.044700
     45 H22         13.0370    16.6160    -0.4620 hc         1 O18       0.039700
     46 H23         14.2480    15.6740     0.4070 hc         1 O18       0.039700
     47 H24         15.9560    17.4800    -0.0590 hc         1 O18       0.037200
     48 H25         14.7120    18.4440    -0.8440 hc         1 O18       0.037200
     49 H26         15.2060    19.1470     1.5120 hc         1 O18       0.037700
     50 H27         14.6920    17.5720     2.1040 hc         1 O18       0.037700
     51 H28         12.3610    18.0110     1.2870 hc         1 O18       0.037200
     52 H29         12.8780    19.5540     0.6070 hc         1 O18       0.037200
     53 H30         11.7300    19.8780     2.7950 hc         1 O18       0.031033
     54 H31         12.9160    18.8250     3.5980 hc         1 O18       0.031033
     55 H32         13.4280    20.3880     2.9180 hc         1 O18       0.031033
     56 H33         18.5090     9.8120   -10.2070 h4         1 O18       0.012200
     57 H34         19.8830    12.8160   -12.5170 hn         1 O18       0.402500
     58 H35         18.8420    11.7520   -13.1450 hn         1 O18       0.402500
@<TRIPOS>BOND
     1     1     2 1   
     2     1    19 1   
     3     1    20 1   
     4     1    24 1   
     5     2    21 1   
     6     2    25 1   
     7     2    26 1   
     8     3     4 1   
     9     3    21 1   
    10     3    22 2   
    11     4     5 1   
    12     4    27 1   
    13     4    28 1   
    14     5     6 1   
    15     5    29 1   
    16     5    30 1   
    17     6     7 1   
    18     6    31 1   
    19     6    32 1   
    20     7     8 1   
    21     7    33 1   
    22     7    34 1   
    23     8     9 1   
    24     8    35 1   
    25     8    36 1   
    26     9    10 1   
    27     9    37 1   
    28     9    38 1   
    29    10    11 1   
    30    10    39 1   
    31    10    40 1   
    32    11    12 2   
    33    11    41 1   
    34    12    13 1   
    35    12    42 1   
    36    13    14 1   
    37    13    43 1   
    38    13    44 1   
    39    14    15 1   
    40    14    45 1   
    41    14    46 1   
    42    15    16 1   
    43    15    47 1   
    44    15    48 1   
    45    16    17 1   
    46    16    49 1   
    47    16    50 1   
    48    17    18 1   
    49    17    51 1   
    50    17    52 1   
    51    18    53 1   
    52    18    54 1   
    53    18    55 1   
    54    19    23 2   
    55    19    56 1   
    56    20    57 1   
    57    20    58 1   
@<TRIPOS>SUBSTRUCTURE
     1 O18         1 TEMP              0 ****  ****    0 ROOT
