@<TRIPOS>MOLECULE
O18
   58    57     1     0     0
SMALL
abcg2


@<TRIPOS>ATOM
      1 C43         20.1470    10.5530   -11.0190 c3         1 O18       0.033500
      2 C44         20.6230    11.8640   -10.4160 c3         1 O18       0.171600
      3 C45         20.0290    13.2490    -8.5950 c          1 O18       0.594100
      4 C46         19.0380    13.4520    -7.4810 c3         1 O18      -0.133400
      5 C47         18.5190    12.1770    -6.8230 c3         1 O18      -0.070400
      6 C48         17.6030    12.4850    -5.6460 c3         1 O18      -0.078400
      7 C49         17.0730    11.2230    -4.9750 c3         1 O18      -0.073400
      8 C50         16.0690    11.4850    -3.8560 c3         1 O18      -0.073400
      9 C51         16.6490    12.2350    -2.6610 c3         1 O18      -0.070400
     10 C52         15.6590    12.3890    -1.4990 c3         1 O18      -0.042200
     11 C53         14.4310    13.1550    -1.8900 c2         1 O18      -0.218200
     12 C54         14.1950    14.4510    -1.6890 c2         1 O18      -0.216200
     13 C55         15.0630    15.4410    -0.9750 c3         1 O18      -0.043200
     14 C56         14.2680    16.2620     0.0400 c3         1 O18      -0.074400
     15 C57         15.1290    17.2530     0.8140 c3         1 O18      -0.073400
     16 C58         14.3540    18.0750     1.8410 c3         1 O18      -0.074400
     17 C59         13.3500    19.0520     1.2360 c3         1 O18      -0.076400
     18 C60         12.6140    19.8640     2.2920 c3         1 O18      -0.089100
     19 C61         20.0980     9.5060    -9.9220 c          1 O18       0.587900
     20 N13         18.8280    10.6880   -11.6020 n8         1 O18      -0.987200
     21 O10         19.7470    12.1840    -9.3360 os         1 O18      -0.437100
     22 O11         20.9670    13.9750    -8.8210 o          1 O18      -0.492000
     23 O15         21.0760     9.0150    -9.4220 o          1 O18      -0.515100
     24 H1          20.9300    10.2530   -11.7310 h1         1 O18       0.051700
     25 H2          21.6490    11.7550   -10.0600 h1         1 O18       0.058700
     26 H3          20.6080    12.6550   -11.1710 h1         1 O18       0.058700
     27 H4          19.5110    14.0980    -6.7400 hc         1 O18       0.073200
     28 H5          18.1990    14.0220    -7.8950 hc         1 O18       0.073200
     29 H6          17.9790    11.5680    -7.5520 hc         1 O18       0.052200
     30 H7          19.3620    11.5720    -6.4760 hc         1 O18       0.052200
     31 H8          18.1430    13.1000    -4.9200 hc         1 O18       0.039200
     32 H9          16.7580    13.0930    -5.9910 hc         1 O18       0.039200
     33 H10         16.5960    10.5950    -5.7350 hc         1 O18       0.038700
     34 H11         17.9130    10.6390    -4.5830 hc         1 O18       0.038700
     35 H12         15.2170    12.0390    -4.2620 hc         1 O18       0.039200
     36 H13         15.6700    10.5260    -3.5090 hc         1 O18       0.039200
     37 H14         17.5380    11.7060    -2.3040 hc         1 O18       0.039200
     38 H15         16.9840    13.2310    -2.9660 hc         1 O18       0.039200
     39 H16         15.3670    11.3930    -1.1500 hc         1 O18       0.043700
     40 H17         16.1690    12.8710    -0.6630 hc         1 O18       0.043700
     41 H18         13.6720    12.5910    -2.4250 ha         1 O18       0.165000
     42 H19         13.2600    14.8540    -2.0720 ha         1 O18       0.164000
     43 H20         15.8990    14.9430    -0.4780 hc         1 O18       0.044700
     44 H21         15.5110    16.1240    -1.7060 hc         1 O18       0.044700
     45 H22         13.4660    16.7910    -0.4860 hc         1 O18       0.039700
     46 H23         13.7730    15.5860     0.7450 hc         1 O18       0.039700
     47 H24         15.9260    16.7040     1.3250 hc         1 O18       0.037200
     48 H25         15.6300    17.9290     0.1120 hc         1 O18       0.037200
     49 H26         15.0640    18.6390     2.4550 hc         1 O18       0.037700
     50 H27         13.8330    17.3980     2.5280 hc         1 O18       0.037700
     51 H28         12.6210    18.5120     0.6250 hc         1 O18       0.037200
     52 H29         13.8760    19.7270     0.5520 hc         1 O18       0.037200
     53 H30         11.9090    20.5640     1.8410 hc         1 O18       0.031033
     54 H31         12.0500    19.2150     2.9640 hc         1 O18       0.031033
     55 H32         13.3090    20.4420     2.9030 hc         1 O18       0.031033
     56 H33         19.0770     9.2290    -9.6000 h4         1 O18       0.012200
     57 H34         18.8160    11.4660   -12.2500 hn         1 O18       0.402500
     58 H35         18.6160     9.8670   -12.1560 hn         1 O18       0.402500
@<TRIPOS>BOND
     1     1     2 1   
     2     1    19 1   
     3     1    20 1   
     4     1    24 1   
     5     2    21 1   
     6     2    25 1   
     7     2    26 1   
     8     3     4 1   
     9     3    21 1   
    10     3    22 2   
    11     4     5 1   
    12     4    27 1   
    13     4    28 1   
    14     5     6 1   
    15     5    29 1   
    16     5    30 1   
    17     6     7 1   
    18     6    31 1   
    19     6    32 1   
    20     7     8 1   
    21     7    33 1   
    22     7    34 1   
    23     8     9 1   
    24     8    35 1   
    25     8    36 1   
    26     9    10 1   
    27     9    37 1   
    28     9    38 1   
    29    10    11 1   
    30    10    39 1   
    31    10    40 1   
    32    11    12 2   
    33    11    41 1   
    34    12    13 1   
    35    12    42 1   
    36    13    14 1   
    37    13    43 1   
    38    13    44 1   
    39    14    15 1   
    40    14    45 1   
    41    14    46 1   
    42    15    16 1   
    43    15    47 1   
    44    15    48 1   
    45    16    17 1   
    46    16    49 1   
    47    16    50 1   
    48    17    18 1   
    49    17    51 1   
    50    17    52 1   
    51    18    53 1   
    52    18    54 1   
    53    18    55 1   
    54    19    23 2   
    55    19    56 1   
    56    20    57 1   
    57    20    58 1   
@<TRIPOS>SUBSTRUCTURE
     1 O18         1 TEMP              0 ****  ****    0 ROOT
