@<TRIPOS>MOLECULE
O19
   61    65     1     0     0
SMALL
bcc


@<TRIPOS>ATOM
      1 O10          6.5610    -1.8260    -0.3020 o          1 O19      -0.577100
      2 C9           7.0930    -0.7420    -0.4550 c          1 O19       0.661100
      3 C11          8.6040    -0.5660    -0.4950 c5         1 O19       0.074500
      4 C15          9.1270    -0.0990     0.8970 c5         1 O19      -0.098400
      5 C14          9.7530    -1.3590     1.4810 c5         1 O19      -0.113400
      6 C13         10.2930    -2.0370     0.2270 c5         1 O19       0.142800
      7 N12          9.2800    -1.8190    -0.8050 n7         1 O19      -0.778200
      8 N8           6.4170     0.4300    -0.5700 ns         1 O19      -0.468100
      9 C6           5.0540     0.6880    -0.4490 ca         1 O19       0.091600
     10 C1           4.6620     2.0290    -0.4940 ca         1 O19      -0.182000
     11 C5           4.0710    -0.2930    -0.2910 ca         1 O19      -0.182000
     12 C4           2.7430     0.0790    -0.1730 ca         1 O19      -0.062000
     13 C3           2.3450     1.4140    -0.1970 cp         1 O19      -0.192500
     14 C2           3.3340     2.3840    -0.3680 ca         1 O19      -0.062000
     15 C7           0.9250     1.7760    -0.0390 cp         1 O19       0.568800
     16 N20          0.0350     0.8100    -0.2040 nb         1 O19      -0.787000
     17 C19         -1.2580     1.1100    -0.0450 ca         1 O19       0.919900
     18 N18         -1.7420     2.3110     0.2630 nb         1 O19      -0.761000
     19 C17         -0.8410     3.2700     0.4280 ca         1 O19       0.476200
     20 C16          0.5170     3.0720     0.2940 ca         1 O19      -0.423600
     21 N21         -2.1010     0.0620    -0.2320 nu         1 O19      -0.731300
     22 C22         -3.4860    -0.0450    -0.1120 ca         1 O19       0.148600
     23 C27         -4.0590    -1.2680    -0.4790 ca         1 O19      -0.140500
     24 C26         -5.4140    -1.4950    -0.3680 ca         1 O19      -0.148500
     25 C25         -6.2850    -0.5040     0.1080 ca         1 O19       0.123600
     26 C24         -5.7090     0.7190     0.4560 ca         1 O19      -0.148500
     27 C23         -4.3400     0.9470     0.3610 ca         1 O19      -0.140500
     28 N28         -7.6490    -0.7710     0.2590 nh         1 O19      -0.643000
     29 C33         -8.4680     0.2510     0.8780 c6         1 O19       0.157800
     30 C32         -9.8210    -0.3270     1.2520 c6         1 O19       0.124900
     31 O31        -10.4780    -0.8950     0.1420 os         1 O19      -0.399600
     32 C30         -9.6890    -1.9170    -0.4220 c6         1 O19       0.124900
     33 C29         -8.3330    -1.3990    -0.8630 c6         1 O19       0.157800
     34 H11          8.8380     0.1980    -1.2440 h1         1 O19       0.076700
     35 H8           6.9880     1.2500    -0.7150 hn         1 O19       0.318500
     36 H151         9.8870     0.6700     0.7550 hc         1 O19       0.053700
     37 H152         8.3460     0.3340     1.5240 hc         1 O19       0.053700
     38 H12          8.6020    -2.5710    -0.7560 hn         1 O19       0.377800
     39 H141        10.5240    -1.1440     2.2210 hc         1 O19       0.056700
     40 H142         8.9980    -1.9890     1.9570 hc         1 O19       0.056700
     41 H131        11.2370    -1.5700    -0.0710 h1         1 O19       0.055700
     42 H132        10.4830    -3.1040     0.3480 h1         1 O19       0.055700
     43 H1           5.4070     2.8040    -0.6270 ha         1 O19       0.148500
     44 H5           4.3270    -1.3390    -0.2580 ha         1 O19       0.148500
     45 H2           3.0810     3.4340    -0.4160 ha         1 O19       0.143500
     46 H4           1.9970    -0.6950    -0.0500 ha         1 O19       0.143500
     47 H16          1.2100     3.8810     0.4630 ha         1 O19       0.152000
     48 H21         -1.6230    -0.7890    -0.4890 hn         1 O19       0.452800
     49 H17         -1.2270     4.2500     0.6870 h4         1 O19       0.020100
     50 H27         -3.4260    -2.0680    -0.8470 ha         1 O19       0.146500
     51 H23         -3.9530     1.9100     0.6500 ha         1 O19       0.146500
     52 H26         -5.7900    -2.4720    -0.6420 ha         1 O19       0.132000
     53 H24         -6.3190     1.5360     0.8150 ha         1 O19       0.132000
     54 H331        -7.9920     0.6020     1.7950 h1         1 O19       0.046200
     55 H332        -8.6030     1.1250     0.2210 h1         1 O19       0.046200
     56 H291        -8.4550    -0.6890    -1.6950 h1         1 O19       0.046200
     57 H292        -7.7580    -2.2440    -1.2380 h1         1 O19       0.046200
     58 H321        -9.6820    -1.0790     2.0400 h1         1 O19       0.052200
     59 H322       -10.4610     0.4630     1.6470 h1         1 O19       0.052200
     60 H301        -9.5470    -2.7340     0.2990 h1         1 O19       0.052200
     61 H302       -10.2290    -2.3140    -1.2830 h1         1 O19       0.052200
@<TRIPOS>BOND
     1     1     2 2   
     2     2     3 1   
     3     2     8 1   
     4     3     4 1   
     5     3     7 1   
     6     3    34 1   
     7     4     5 1   
     8     4    36 1   
     9     4    37 1   
    10     5     6 1   
    11     5    39 1   
    12     5    40 1   
    13     6     7 1   
    14     6    41 1   
    15     6    42 1   
    16     7    38 1   
    17     8     9 1   
    18     8    35 1   
    19     9    10 ar  
    20     9    11 ar  
    21    10    14 ar  
    22    10    43 1   
    23    11    12 ar  
    24    11    44 1   
    25    12    13 ar  
    26    12    46 1   
    27    13    14 ar  
    28    13    15 1   
    29    14    45 1   
    30    15    16 ar  
    31    15    20 ar  
    32    16    17 ar  
    33    17    18 ar  
    34    17    21 1   
    35    18    19 ar  
    36    19    20 ar  
    37    19    49 1   
    38    20    47 1   
    39    21    22 1   
    40    21    48 1   
    41    22    23 ar  
    42    22    27 ar  
    43    23    24 ar  
    44    23    50 1   
    45    24    25 ar  
    46    24    52 1   
    47    25    26 ar  
    48    25    28 1   
    49    26    27 ar  
    50    26    53 1   
    51    27    51 1   
    52    28    29 1   
    53    28    33 1   
    54    29    30 1   
    55    29    54 1   
    56    29    55 1   
    57    30    31 1   
    58    30    58 1   
    59    30    59 1   
    60    31    32 1   
    61    32    33 1   
    62    32    60 1   
    63    32    61 1   
    64    33    56 1   
    65    33    57 1   
@<TRIPOS>SUBSTRUCTURE
     1 O19         1 TEMP              0 ****  ****    0 ROOT
