@<TRIPOS>MOLECULE
O19
   61    65     1     0     0
SMALL
No Charge or Current Charge


@<TRIPOS>ATOM
      1 O10          6.6600    -1.9250     0.4460 o          1 O19      -0.577100
      2 C9           7.1650    -0.8620     0.0910 c          1 O19       0.594100
      3 C11          8.7050    -0.5970    -0.1200 c5         1 O19       0.074500
      4 C15          9.3970    -0.3640     1.2680 c5         1 O19      -0.098400
      5 C14         10.4650    -1.4890     1.3390 c5         1 O19      -0.113400
      6 C13         10.8060    -1.6650    -0.1530 c5         1 O19       0.142800
      7 N12          9.4580    -1.7410    -0.7490 n7         1 O19      -0.833400
      8 N8           6.4650     0.2930    -0.2430 ns         1 O19      -0.142000
      9 C6           5.0780     0.6030    -0.2360 ca         1 O19      -0.001000
     10 C1           4.6890     1.8650    -0.7170 ca         1 O19      -0.164000
     11 C5           4.0820    -0.2790     0.2300 ca         1 O19      -0.164000
     12 C4           2.7280     0.0980     0.2090 ca         1 O19      -0.044000
     13 C3           2.3190     1.3700    -0.2730 cp         1 O19      -0.192500
     14 C2           3.3360     2.2440    -0.7390 ca         1 O19      -0.044000
     15 C7           0.8690     1.7700    -0.2940 cp         1 O19       0.240500
     16 N20         -0.0500     0.7840    -0.2430 nb         1 O19      -0.261000
     17 C19         -1.3470     1.1310    -0.2500 ca         1 O19       0.393900
     18 N18         -1.8410     2.3800    -0.3220 nb         1 O19      -0.235000
     19 C17         -0.9400     3.3780    -0.3670 ca         1 O19       0.147900
     20 C16          0.4390     3.1180    -0.3520 ca         1 O19      -0.275000
     21 N21         -2.2320     0.0590    -0.2300 nu         1 O19      -0.924900
     22 C22         -3.6220    -0.0670    -0.1130 ca         1 O19       0.287000
     23 C27         -4.2410    -1.2140    -0.6390 ca         1 O19      -0.122500
     24 C26         -5.6340    -1.3900    -0.5340 ca         1 O19      -0.130500
     25 C25         -6.4360    -0.4260     0.1070 ca         1 O19       0.262000
     26 C24         -5.8100     0.7140     0.6520 ca         1 O19      -0.130500
     27 C23         -4.4170     0.8910     0.5450 ca         1 O19      -0.122500
     28 N28         -7.8360    -0.6200     0.2070 nh         1 O19      -0.781400
     29 C33         -8.6310    -0.0000     1.3190 c6         1 O19       0.157800
     30 C32         -9.9900    -0.7280     1.5530 c6         1 O19       0.148100
     31 O31        -10.7280    -0.8500     0.3150 os         1 O19      -0.446000
     32 C30        -10.0050    -1.6000    -0.6890 c6         1 O19       0.148100
     33 C29         -8.6460    -0.9110    -1.0230 c6         1 O19       0.157800
     34 H11          8.8230     0.3030    -0.7410 h1         1 O19       0.076700
     35 H8           7.0510     1.0620    -0.5400 hn         1 O19       0.152000
     36 H151         9.8660     0.6270     1.3000 hc         1 O19       0.053700
     37 H152         8.7000    -0.4110     2.1140 hc         1 O19       0.053700
     38 H12          9.0260    -2.6200    -0.4290 hn         1 O19       0.433000
     39 H141        11.3380    -1.2070     1.9390 hc         1 O19       0.056700
     40 H142        10.0540    -2.4110     1.7680 hc         1 O19       0.056700
     41 H131        11.3660    -0.8020    -0.5440 h1         1 O19       0.055700
     42 H132        11.3950    -2.5730    -0.3450 h1         1 O19       0.055700
     43 H1           5.4390     2.5610    -1.0850 ha         1 O19       0.130500
     44 H5           4.3330    -1.2600     0.6190 ha         1 O19       0.130500
     45 H2           3.0820     3.2230    -1.1370 ha         1 O19       0.125500
     46 H4           1.9900    -0.6090     0.5840 ha         1 O19       0.125500
     47 H16          1.1430     3.9430    -0.3720 ha         1 O19       0.134000
     48 H21         -1.7560    -0.8240    -0.4110 hn         1 O19       0.508000
     49 H17         -1.3280     4.3940    -0.4130 h4         1 O19       0.020100
     50 H27         -3.6450    -1.9730    -1.1380 ha         1 O19       0.128500
     51 H23         -3.9650     1.7680     0.9950 ha         1 O19       0.128500
     52 H26         -6.0880    -2.2880    -0.9430 ha         1 O19       0.114000
     53 H24         -6.3980     1.4750     1.1570 ha         1 O19       0.114000
     54 H331        -8.0590    -0.0310     2.2580 h1         1 O19       0.046200
     55 H332        -8.8330     1.0570     1.0910 h1         1 O19       0.046200
     56 H291        -8.8500     0.0260    -1.5620 h1         1 O19       0.046200
     57 H292        -8.0930    -1.5640    -1.7140 h1         1 O19       0.046200
     58 H321        -9.8090    -1.7310     1.9650 h1         1 O19       0.052200
     59 H322       -10.5930    -0.1660     2.2790 h1         1 O19       0.052200
     60 H301        -9.8250    -2.6190    -0.3180 h1         1 O19       0.052200
     61 H302       -10.6190    -1.6720    -1.5970 h1         1 O19       0.052200
@<TRIPOS>BOND
     1     1     2 2   
     2     2     3 1   
     3     2     8 1   
     4     3     4 1   
     5     3     7 1   
     6     3    34 1   
     7     4     5 1   
     8     4    36 1   
     9     4    37 1   
    10     5     6 1   
    11     5    39 1   
    12     5    40 1   
    13     6     7 1   
    14     6    41 1   
    15     6    42 1   
    16     7    38 1   
    17     8     9 1   
    18     8    35 1   
    19     9    10 ar  
    20     9    11 ar  
    21    10    14 ar  
    22    10    43 1   
    23    11    12 ar  
    24    11    44 1   
    25    12    13 ar  
    26    12    46 1   
    27    13    14 ar  
    28    13    15 1   
    29    14    45 1   
    30    15    16 ar  
    31    15    20 ar  
    32    16    17 ar  
    33    17    18 ar  
    34    17    21 1   
    35    18    19 ar  
    36    19    20 ar  
    37    19    49 1   
    38    20    47 1   
    39    21    22 1   
    40    21    48 1   
    41    22    23 ar  
    42    22    27 ar  
    43    23    24 ar  
    44    23    50 1   
    45    24    25 ar  
    46    24    52 1   
    47    25    26 ar  
    48    25    28 1   
    49    26    27 ar  
    50    26    53 1   
    51    27    51 1   
    52    28    29 1   
    53    28    33 1   
    54    29    30 1   
    55    29    54 1   
    56    29    55 1   
    57    30    31 1   
    58    30    58 1   
    59    30    59 1   
    60    31    32 1   
    61    32    33 1   
    62    32    60 1   
    63    32    61 1   
    64    33    56 1   
    65    33    57 1   
@<TRIPOS>SUBSTRUCTURE
     1 O19         1 TEMP              0 ****  ****    0 ROOT
