@<TRIPOS>MOLECULE
O1A
   36    37     1     0     0
SMALL
bcc


@<TRIPOS>ATOM
      1 N1           1.7630     0.0400     0.1380 nh         1 O1A      -0.645000
      2 C4           3.9500     1.0890    -0.1750 c6         1 O1A       0.158300
      3 C5           0.3690     0.0970     0.0680 ca         1 O1A       0.126600
      4 C6          -0.3020     1.2960     0.3470 ca         1 O1A      -0.149500
      5 C7          -1.6780     1.3710     0.3150 ca         1 O1A      -0.138000
      6 C8          -2.4640     0.2540     0.0170 ca         1 O1A       0.038600
      7 C10         -6.2290     0.1350    -0.2330 c3         1 O1A      -0.181100
      8 N            4.5660    -0.2120    -0.3290 n3         1 O1A      -0.714600
      9 C            5.9690    -0.1830     0.0160 c3         1 O1A       0.152100
     10 O           -4.6240    -1.5380    -0.8020 o          1 O1A      -0.588100
     11 C1           3.8410    -1.1930     0.4500 c6         1 O1A       0.158300
     12 C11         -1.8130    -0.9440    -0.2550 ca         1 O1A      -0.138000
     13 C12         -0.4240    -1.0110    -0.2380 ca         1 O1A      -0.149500
     14 C2           2.3870    -1.2620     0.0220 c6         1 O1A       0.194800
     15 C3           2.4980     1.0530    -0.6080 c6         1 O1A       0.194800
     16 C9          -4.8320    -0.4200    -0.3600 c          1 O1A       0.673100
     17 N2          -3.8550     0.4290     0.0380 ns         1 O1A      -0.470100
     18 H1           4.0070     1.4460     0.8680 h1         1 O1A       0.038950
     19 H2           4.4810     1.8160    -0.7940 h1         1 O1A       0.038950
     20 H3           0.2550     2.1840     0.6150 ha         1 O1A       0.133000
     21 H4          -2.1540     2.3180     0.5440 ha         1 O1A       0.143000
     22 H5          -6.8760    -0.6120     0.2250 hc         1 O1A       0.062033
     23 H6          -6.2850     1.0510     0.3520 hc         1 O1A       0.062033
     24 H7          -6.6240     0.3430    -1.2280 hc         1 O1A       0.062033
     25 H9           6.1510     0.0890     1.0670 h1         1 O1A       0.031367
     26 H10          6.4180    -1.1620    -0.1590 h1         1 O1A       0.031367
     27 H11          6.4920     0.5410    -0.6100 h1         1 O1A       0.031367
     28 H12          4.2930    -2.1760     0.3020 h1         1 O1A       0.038950
     29 H13          3.8900    -0.9720     1.5310 h1         1 O1A       0.038950
     30 H14         -2.3680    -1.8360    -0.4940 ha         1 O1A       0.143000
     31 H15          0.0290    -1.9630    -0.4790 ha         1 O1A       0.133000
     32 H16          1.8730    -1.9710     0.6730 h1         1 O1A       0.043700
     33 H17          2.3290    -1.6540    -1.0050 h1         1 O1A       0.043700
     34 H18          2.4410     0.8560    -1.6890 h1         1 O1A       0.043700
     35 H19          2.0660     2.0370    -0.4340 h1         1 O1A       0.043700
     36 H20         -4.1590     1.3320     0.3690 hn         1 O1A       0.313500
@<TRIPOS>BOND
     1     1     3 1   
     2     1    14 1   
     3     1    15 1   
     4     2     8 1   
     5     2    15 1   
     6     2    18 1   
     7     2    19 1   
     8     3     4 ar  
     9     3    13 ar  
    10     4     5 ar  
    11     4    20 1   
    12     5     6 ar  
    13     5    21 1   
    14     6    12 ar  
    15     6    17 1   
    16     7    16 1   
    17     7    22 1   
    18     7    23 1   
    19     7    24 1   
    20     8     9 1   
    21     8    11 1   
    22     9    25 1   
    23     9    26 1   
    24     9    27 1   
    25    10    16 2   
    26    11    14 1   
    27    11    28 1   
    28    11    29 1   
    29    12    13 ar  
    30    12    30 1   
    31    13    31 1   
    32    14    32 1   
    33    14    33 1   
    34    15    34 1   
    35    15    35 1   
    36    16    17 1   
    37    17    36 1   
@<TRIPOS>SUBSTRUCTURE
     1 O1A         1 TEMP              0 ****  ****    0 ROOT
