@<TRIPOS>MOLECULE
O1A
   36    37     1     0     0
SMALL
No Charge or Current Charge


@<TRIPOS>ATOM
      1 N1           1.7350    -0.0260    -0.0690 nh         1 O1A      -0.783400
      2 C4           4.0090     1.1040    -0.3110 c6         1 O1A       0.158300
      3 C5           0.3200     0.0490    -0.0620 ca         1 O1A       0.265000
      4 C6          -0.3180     1.2370     0.3410 ca         1 O1A      -0.131500
      5 C7          -1.7210     1.3310     0.3570 ca         1 O1A      -0.120000
      6 C8          -2.5180     0.2380    -0.0300 ca         1 O1A      -0.054000
      7 C10         -6.3650     0.1820    -0.0940 c3         1 O1A      -0.181100
      8 N            4.7120    -0.2150    -0.2650 n3         1 O1A      -0.714600
      9 C            6.1160    -0.0980     0.1800 c3         1 O1A       0.152100
     10 O           -4.8650    -1.6030    -0.6750 o          1 O1A      -0.588100
     11 C1           3.9220    -1.1780     0.5610 c6         1 O1A       0.158300
     12 C11         -1.8830    -0.9560    -0.4330 ca         1 O1A      -0.120000
     13 C12         -0.4790    -1.0470    -0.4460 ca         1 O1A      -0.131500
     14 C2           2.4470    -1.3390     0.0650 c6         1 O1A       0.194800
     15 C3           2.5360     0.9910    -0.8250 c6         1 O1A       0.194800
     16 C9          -4.9880    -0.4460    -0.2880 c          1 O1A       0.606100
     17 N2          -3.9320     0.4060     0.0110 ns         1 O1A      -0.144000
     18 H1           3.9920     1.5550     0.6930 h1         1 O1A       0.038950
     19 H2           4.5530     1.8020    -0.9640 h1         1 O1A       0.038950
     20 H3           0.2750     2.0900     0.6560 ha         1 O1A       0.115000
     21 H4          -2.1880     2.2610     0.6750 ha         1 O1A       0.125000
     22 H5          -7.1830    -0.5070    -0.3350 hc         1 O1A       0.062033
     23 H6          -6.4440     0.5600     0.9320 hc         1 O1A       0.062033
     24 H7          -6.4240     1.1030    -0.6860 hc         1 O1A       0.062033
     25 H9           6.1720     0.2920     1.2060 h1         1 O1A       0.031367
     26 H10          6.6130    -1.0770     0.1570 h1         1 O1A       0.031367
     27 H11          6.6760     0.5810    -0.4770 h1         1 O1A       0.031367
     28 H12          4.4020    -2.1680     0.5540 h1         1 O1A       0.038950
     29 H13          3.9000    -0.8430     1.6090 h1         1 O1A       0.038950
     30 H14         -2.4550    -1.8260    -0.7410 ha         1 O1A       0.125000
     31 H15         -0.0180    -1.9740    -0.7700 ha         1 O1A       0.115000
     32 H16          1.9160    -1.9880     0.7760 h1         1 O1A       0.043700
     33 H17          2.4580    -1.8550    -0.9060 h1         1 O1A       0.043700
     34 H18          2.5580     0.7210    -1.8910 h1         1 O1A       0.043700
     35 H19          2.0720     1.9850    -0.7570 h1         1 O1A       0.043700
     36 H20         -4.2230     1.3260     0.3170 hn         1 O1A       0.147000
@<TRIPOS>BOND
     1     1     3 1   
     2     1    14 1   
     3     1    15 1   
     4     2     8 1   
     5     2    15 1   
     6     2    18 1   
     7     2    19 1   
     8     3     4 ar  
     9     3    13 ar  
    10     4     5 ar  
    11     4    20 1   
    12     5     6 ar  
    13     5    21 1   
    14     6    12 ar  
    15     6    17 1   
    16     7    16 1   
    17     7    22 1   
    18     7    23 1   
    19     7    24 1   
    20     8     9 1   
    21     8    11 1   
    22     9    25 1   
    23     9    26 1   
    24     9    27 1   
    25    10    16 2   
    26    11    14 1   
    27    11    28 1   
    28    11    29 1   
    29    12    13 ar  
    30    12    30 1   
    31    13    31 1   
    32    14    32 1   
    33    14    33 1   
    34    15    34 1   
    35    15    35 1   
    36    16    17 1   
    37    17    36 1   
@<TRIPOS>SUBSTRUCTURE
     1 O1A         1 TEMP              0 ****  ****    0 ROOT
