@<TRIPOS>MOLECULE
O1C
   84    86     1     0     0
SMALL
No Charge or Current Charge


@<TRIPOS>ATOM
      1 C5          14.4520    18.9130    33.8530 ce         1 O1C      -0.070200
      2 C10         13.8020    18.3990    35.0740 ce         1 O1C      -0.087200
      3 C1          14.7670    17.6220    35.9980 c6         1 O1C       0.210500
      4 C2          15.4250    16.4390    35.2190 c6         1 O1C      -0.083700
      5 C3          16.1650    17.0030    33.9650 c6         1 O1C       0.176300
      6 C4          15.2120    17.8360    33.0630 c6         1 O1C      -0.067200
      7 C6          14.3620    20.1940    33.3880 cf         1 O1C      -0.163000
      8 C7          13.6780    21.3000    34.0620 cf         1 O1C      -0.189000
      9 C8          13.3800    22.5260    33.5440 c2         1 O1C      -0.080400
     10 C14         12.7080    23.6420    34.3640 c5         1 O1C      -0.035500
     11 C13         11.4230    24.1350    33.6200 c5         1 O1C      -0.043000
     12 C12         11.8370    24.7200    32.2380 c6         1 O1C      -0.063400
     13 C11         12.5550    23.6510    31.3670 c6         1 O1C      -0.070400
     14 C9          13.7370    22.9640    32.1110 c6         1 O1C      -0.042200
     15 C15         12.1350    23.2670    35.7650 c5         1 O1C      -0.070400
     16 C16         11.1100    24.4230    36.0470 c5         1 O1C      -0.073400
     17 C17         11.0120    25.2310    34.6990 c5         1 O1C      -0.055700
     18 C19         12.4800    18.5620    35.3170 c2         1 O1C      -0.284000
     19 O2          17.2810    17.8060    34.3740 oh         1 O1C      -0.669000
     20 O1          14.1170    17.1580    37.1930 oh         1 O1C      -0.663000
     21 C20          9.7370    26.1600    34.5280 c3         1 O1C      -0.046700
     22 C22          8.3580    25.4300    34.5510 c3         1 O1C      -0.074400
     23 C18         10.3550    23.0060    33.3840 c3         1 O1C      -0.076100
     24 C21          9.7720    27.3190    35.5610 c3         1 O1C      -0.090100
     25 C23          7.1270    26.3340    34.2870 c3         1 O1C      -0.073400
     26 C24          5.8100    25.5240    34.1500 c3         1 O1C      -0.099400
     27 C25          4.5070    26.3550    33.9470 c3         1 O1C       0.177000
     28 O25          4.3230    27.2100    35.0770 oh         1 O1C      -0.668000
     29 C27          3.2830    25.4130    33.8730 c3         1 O1C      -0.097600
     30 C26          4.5670    27.2450    32.6810 c3         1 O1C      -0.097600
     31 C28         14.3900    15.3060    34.8700 c3         1 O1C      -0.066400
     32 C29         14.9290    14.0750    34.0910 c3         1 O1C      -0.075400
     33 C30         16.0960    13.3190    34.7670 c3         1 O1C       0.159600
     34 O31         15.6810    12.7780    36.0270 oh         1 O1C      -0.669000
     35 H1          15.5660    18.3220    36.2870 h1         1 O1C       0.057700
     36 H2          16.1730    15.9770    35.8770 hc         1 O1C       0.059700
     37 H3          16.5500    16.1640    33.3700 h1         1 O1C       0.033700
     38 H41         15.7820    18.2850    32.2380 hc         1 O1C       0.050700
     39 H42         14.4840    17.1670    32.5850 hc         1 O1C       0.050700
     40 H6          14.8700    20.4130    32.4500 ha         1 O1C       0.164000
     41 H7          13.4090    21.0960    35.0960 ha         1 O1C       0.181000
     42 H14         13.4400    24.4520    34.4750 hc         1 O1C       0.051700
     43 H121        12.5120    25.5750    32.3840 hc         1 O1C       0.040200
     44 H122        10.9590    25.1110    31.7080 hc         1 O1C       0.040200
     45 H111        12.9250    24.1180    30.4440 hc         1 O1C       0.039700
     46 H112        11.8360    22.8870    31.0440 hc         1 O1C       0.039700
     47 H91         14.0830    22.1290    31.4940 hc         1 O1C       0.044700
     48 H92         14.5790    23.6680    32.1650 hc         1 O1C       0.044700
     49 H151        12.9200    23.2150    36.5280 hc         1 O1C       0.045200
     50 H152        11.6240    22.2980    35.7650 hc         1 O1C       0.045200
     51 H161        11.4470    25.0680    36.8660 hc         1 O1C       0.041700
     52 H162        10.1460    24.0080    36.3570 hc         1 O1C       0.041700
     53 H17         11.8240    25.9710    34.7100 hc         1 O1C       0.042700
     54 H191        11.9980    18.1650    36.2090 ha         1 O1C       0.173500
     55 H192        11.8370    19.0970    34.6200 ha         1 O1C       0.173500
     56 HO2         17.6850    18.1640    33.5540 ho         1 O1C       0.441000
     57 HO1         14.8050    16.7010    37.7230 ho         1 O1C       0.446000
     58 H20          9.8220    26.6290    33.5400 hc         1 O1C       0.046700
     59 H221         8.2210    24.9250    35.5140 hc         1 O1C       0.039700
     60 H222         8.3460    24.6550    33.7830 hc         1 O1C       0.039700
     61 H181         9.6260    23.2980    32.6200 hc         1 O1C       0.034367
     62 H182         9.7930    22.7560    34.2900 hc         1 O1C       0.034367
     63 H183        10.8110    22.0740    33.0320 hc         1 O1C       0.034367
     64 H211         9.0340    28.0930    35.3210 hc         1 O1C       0.032700
     65 H212        10.7530    27.8090    35.5690 hc         1 O1C       0.032700
     66 H213         9.5690    26.9470    36.5720 hc         1 O1C       0.032700
     67 H231         7.3040    26.9070    33.3690 hc         1 O1C       0.045200
     68 H232         7.0180    27.0540    35.1060 hc         1 O1C       0.045200
     69 H241         5.6950    24.8970    35.0440 hc         1 O1C       0.039700
     70 H242         5.9160    24.8300    33.3060 hc         1 O1C       0.039700
     71 H25          4.3800    26.6410    35.8740 ho         1 O1C       0.436000
     72 H271         3.3600    24.7430    33.0080 hc         1 O1C       0.042200
     73 H272         2.3520    25.9850    33.7750 hc         1 O1C       0.042200
     74 H273         3.2060    24.7930    34.7750 hc         1 O1C       0.042200
     75 H261         3.6130    27.7610    32.5230 hc         1 O1C       0.042200
     76 H262         4.7770    26.6400    31.7910 hc         1 O1C       0.042200
     77 H263         5.3460    28.0110    32.7670 hc         1 O1C       0.042200
     78 H281        13.5580    15.7270    34.2920 hc         1 O1C       0.058200
     79 H282        13.9330    14.9330    35.7940 hc         1 O1C       0.058200
     80 H291        15.2440    14.3850    33.0880 hc         1 O1C       0.044700
     81 H292        14.1010    13.3710    33.9370 hc         1 O1C       0.044700
     82 H301        16.9490    13.9970    34.9000 h1         1 O1C       0.020200
     83 H302        16.4220    12.5080    34.1010 h1         1 O1C       0.020200
     84 H31         16.4500    12.2900    36.3960 ho         1 O1C       0.439000
@<TRIPOS>BOND
     1     1     2 1   
     2     1     6 1   
     3     1     7 2   
     4     2     3 1   
     5     2    18 2   
     6     3     4 1   
     7     3    20 1   
     8     3    35 1   
     9     4     5 1   
    10     4    31 1   
    11     4    36 1   
    12     5     6 1   
    13     5    19 1   
    14     5    37 1   
    15     6    38 1   
    16     6    39 1   
    17     7     8 1   
    18     7    40 1   
    19     8     9 2   
    20     8    41 1   
    21     9    10 1   
    22     9    14 1   
    23    10    11 1   
    24    10    15 1   
    25    10    42 1   
    26    11    12 1   
    27    11    17 1   
    28    11    23 1   
    29    12    13 1   
    30    12    43 1   
    31    12    44 1   
    32    13    14 1   
    33    13    45 1   
    34    13    46 1   
    35    14    47 1   
    36    14    48 1   
    37    15    16 1   
    38    15    49 1   
    39    15    50 1   
    40    16    17 1   
    41    16    51 1   
    42    16    52 1   
    43    17    21 1   
    44    17    53 1   
    45    18    54 1   
    46    18    55 1   
    47    19    56 1   
    48    20    57 1   
    49    21    22 1   
    50    21    24 1   
    51    21    58 1   
    52    22    25 1   
    53    22    59 1   
    54    22    60 1   
    55    23    61 1   
    56    23    62 1   
    57    23    63 1   
    58    24    64 1   
    59    24    65 1   
    60    24    66 1   
    61    25    26 1   
    62    25    67 1   
    63    25    68 1   
    64    26    27 1   
    65    26    69 1   
    66    26    70 1   
    67    27    28 1   
    68    27    29 1   
    69    27    30 1   
    70    28    71 1   
    71    29    72 1   
    72    29    73 1   
    73    29    74 1   
    74    30    75 1   
    75    30    76 1   
    76    30    77 1   
    77    31    32 1   
    78    31    78 1   
    79    31    79 1   
    80    32    33 1   
    81    32    80 1   
    82    32    81 1   
    83    33    34 1   
    84    33    82 1   
    85    33    83 1   
    86    34    84 1   
@<TRIPOS>SUBSTRUCTURE
     1 O1C         1 TEMP              0 ****  ****    0 ROOT
