@<TRIPOS>MOLECULE
O1C
   84    86     1     0     0
SMALL
abcg2


@<TRIPOS>ATOM
      1 C5          14.2070    18.9600    33.7800 ce         1 O1C      -0.070200
      2 C10         13.5300    18.4080    34.9760 ce         1 O1C      -0.087200
      3 C1          14.4500    17.5890    35.8490 c6         1 O1C       0.210500
      4 C2          15.1340    16.4650    35.0380 c6         1 O1C      -0.083700
      5 C3          15.9060    17.0860    33.8710 c6         1 O1C       0.176300
      6 C4          14.9990    17.9480    32.9880 c6         1 O1C      -0.067200
      7 C6          14.1770    20.2580    33.4180 cf         1 O1C      -0.163000
      8 C7          13.5230    21.3400    34.1220 cf         1 O1C      -0.189000
      9 C8          13.4380    22.6210    33.7200 c2         1 O1C      -0.080400
     10 C14         12.7490    23.6870    34.5140 c5         1 O1C      -0.035500
     11 C13         11.5850    24.3430    33.7210 c5         1 O1C      -0.043000
     12 C12         12.1640    24.9730    32.4510 c6         1 O1C      -0.063400
     13 C11         12.9370    23.9470    31.6120 c6         1 O1C      -0.070400
     14 C9          13.9920    23.1750    32.4300 c6         1 O1C      -0.042200
     15 C15         12.1520    23.4110    35.8950 c5         1 O1C      -0.070400
     16 C16         11.1410    24.5710    36.1130 c5         1 O1C      -0.073400
     17 C17         11.0990    25.3630    34.7790 c5         1 O1C      -0.055700
     18 C19         12.2360    18.5830    35.2420 c2         1 O1C      -0.284000
     19 O2          16.9790    17.8560    34.4380 oh         1 O1C      -0.669000
     20 O1          13.7430    17.0850    36.9790 oh         1 O1C      -0.663000
     21 C20          9.8160    26.1650    34.4790 c3         1 O1C      -0.046700
     22 C22          8.4980    25.4740    34.8700 c3         1 O1C      -0.074400
     23 C18         10.5080    23.3110    33.3560 c3         1 O1C      -0.076100
     24 C21          9.9020    27.5470    35.1400 c3         1 O1C      -0.090100
     25 C23          7.2840    26.0080    34.1110 c3         1 O1C      -0.073400
     26 C24          5.9890    25.3240    34.5400 c3         1 O1C      -0.099400
     27 C25          4.6960    25.8690    33.9120 c3         1 O1C       0.177000
     28 O25          4.5360    27.2680    34.2470 oh         1 O1C      -0.668000
     29 C27          3.4960    25.0870    34.4480 c3         1 O1C      -0.097600
     30 C26          4.7250    25.8190    32.3890 c3         1 O1C      -0.097600
     31 C28         14.1330    15.3900    34.5990 c3         1 O1C      -0.066400
     32 C29         14.7290    14.1950    33.8480 c3         1 O1C      -0.075400
     33 C30         15.8320    13.4600    34.5870 c3         1 O1C       0.159600
     34 O31         15.3160    12.9810    35.8360 oh         1 O1C      -0.669000
     35 H1          15.2430    18.2620    36.1960 h1         1 O1C       0.057700
     36 H2          15.8730    16.0050    35.7020 hc         1 O1C       0.059700
     37 H3          16.3350    16.2910    33.2570 h1         1 O1C       0.033700
     38 H41         15.5990    18.4460    32.2230 hc         1 O1C       0.050700
     39 H42         14.3140    17.2720    32.4650 hc         1 O1C       0.050700
     40 H6          14.7290    20.5170    32.5200 ha         1 O1C       0.164000
     41 H7          13.0720    21.0820    35.0720 ha         1 O1C       0.181000
     42 H14         13.4860    24.4930    34.6400 hc         1 O1C       0.051700
     43 H121        12.8420    25.7820    32.7430 hc         1 O1C       0.040200
     44 H122        11.3720    25.4220    31.8450 hc         1 O1C       0.040200
     45 H111        13.4340    24.4520    30.7800 hc         1 O1C       0.039700
     46 H112        12.2410    23.2320    31.1660 hc         1 O1C       0.039700
     47 H91         14.4340    22.3970    31.8090 hc         1 O1C       0.044700
     48 H92         14.7990    23.8730    32.6880 hc         1 O1C       0.044700
     49 H151        12.9200    23.3750    36.6690 hc         1 O1C       0.045200
     50 H152        11.6340    22.4510    35.9130 hc         1 O1C       0.045200
     51 H161        11.4370    25.2180    36.9400 hc         1 O1C       0.041700
     52 H162        10.1590    24.1720    36.3630 hc         1 O1C       0.041700
     53 H17         11.9060    26.1020    34.8250 hc         1 O1C       0.042700
     54 H191        11.7810    18.1490    36.1210 ha         1 O1C       0.173500
     55 H192        11.6040    19.1570    34.5770 ha         1 O1C       0.173500
     56 HO2         17.4530    18.2870    33.7160 ho         1 O1C       0.441000
     57 HO1         14.3800    16.6280    37.5430 ho         1 O1C       0.446000
     58 H20          9.7900    26.3230    33.3940 hc         1 O1C       0.046700
     59 H221         8.3340    25.5990    35.9460 hc         1 O1C       0.039700
     60 H222         8.5640    24.4000    34.6980 hc         1 O1C       0.039700
     61 H181         9.7070    23.7810    32.7840 hc         1 O1C       0.034367
     62 H182        10.0660    22.8520    34.2390 hc         1 O1C       0.034367
     63 H183        10.9220    22.5070    32.7490 hc         1 O1C       0.034367
     64 H211         9.0080    28.1440    34.9470 hc         1 O1C       0.032700
     65 H212        10.7640    28.1060    34.7710 hc         1 O1C       0.032700
     66 H213        10.0060    27.4460    36.2240 hc         1 O1C       0.032700
     67 H231         7.4480    25.8580    33.0400 hc         1 O1C       0.045200
     68 H232         7.1870    27.0860    34.2630 hc         1 O1C       0.045200
     69 H241         5.8860    25.4070    35.6290 hc         1 O1C       0.039700
     70 H242         6.0510    24.2540    34.3190 hc         1 O1C       0.039700
     71 H25          4.5320    27.3430    35.2100 ho         1 O1C       0.436000
     72 H271         3.5670    24.0330    34.1750 hc         1 O1C       0.042200
     73 H272         2.5680    25.4910    34.0370 hc         1 O1C       0.042200
     74 H273         3.4530    25.1550    35.5380 hc         1 O1C       0.042200
     75 H261         3.7720    26.1650    31.9840 hc         1 O1C       0.042200
     76 H262         4.8940    24.7960    32.0480 hc         1 O1C       0.042200
     77 H263         5.5190    26.4510    31.9910 hc         1 O1C       0.042200
     78 H281        13.3580    15.8400    33.9740 hc         1 O1C       0.058200
     79 H282        13.6270    15.0270    35.4930 hc         1 O1C       0.058200
     80 H291        15.1300    14.5080    32.8800 hc         1 O1C       0.044700
     81 H292        13.9240    13.4860    33.6310 hc         1 O1C       0.044700
     82 H301        16.6860    14.1210    34.7650 h1         1 O1C       0.020200
     83 H302        16.1830    12.6200    33.9780 h1         1 O1C       0.020200
     84 H31         16.0320    12.5410    36.3100 ho         1 O1C       0.439000
@<TRIPOS>BOND
     1     1     2 1   
     2     1     6 1   
     3     1     7 2   
     4     2     3 1   
     5     2    18 2   
     6     3     4 1   
     7     3    20 1   
     8     3    35 1   
     9     4     5 1   
    10     4    31 1   
    11     4    36 1   
    12     5     6 1   
    13     5    19 1   
    14     5    37 1   
    15     6    38 1   
    16     6    39 1   
    17     7     8 1   
    18     7    40 1   
    19     8     9 2   
    20     8    41 1   
    21     9    10 1   
    22     9    14 1   
    23    10    11 1   
    24    10    15 1   
    25    10    42 1   
    26    11    12 1   
    27    11    17 1   
    28    11    23 1   
    29    12    13 1   
    30    12    43 1   
    31    12    44 1   
    32    13    14 1   
    33    13    45 1   
    34    13    46 1   
    35    14    47 1   
    36    14    48 1   
    37    15    16 1   
    38    15    49 1   
    39    15    50 1   
    40    16    17 1   
    41    16    51 1   
    42    16    52 1   
    43    17    21 1   
    44    17    53 1   
    45    18    54 1   
    46    18    55 1   
    47    19    56 1   
    48    20    57 1   
    49    21    22 1   
    50    21    24 1   
    51    21    58 1   
    52    22    25 1   
    53    22    59 1   
    54    22    60 1   
    55    23    61 1   
    56    23    62 1   
    57    23    63 1   
    58    24    64 1   
    59    24    65 1   
    60    24    66 1   
    61    25    26 1   
    62    25    67 1   
    63    25    68 1   
    64    26    27 1   
    65    26    69 1   
    66    26    70 1   
    67    27    28 1   
    68    27    29 1   
    69    27    30 1   
    70    28    71 1   
    71    29    72 1   
    72    29    73 1   
    73    29    74 1   
    74    30    75 1   
    75    30    76 1   
    76    30    77 1   
    77    31    32 1   
    78    31    78 1   
    79    31    79 1   
    80    32    33 1   
    81    32    80 1   
    82    32    81 1   
    83    33    34 1   
    84    33    82 1   
    85    33    83 1   
    86    34    84 1   
@<TRIPOS>SUBSTRUCTURE
     1 O1C         1 TEMP              0 ****  ****    0 ROOT
