@<TRIPOS>MOLECULE
O1D
   28    29     1     0     0
SMALL
abcg2


@<TRIPOS>ATOM
      1 C4           1.3920    -0.2400     0.0290 ca         1 O1D       0.180100
      2 C5          -0.8580    -1.0290     0.0040 c3         1 O1D       0.212900
      3 C6          -2.2310    -0.4270     0.0090 ca         1 O1D      -0.095300
      4 C7          -2.8650    -0.1280     1.2110 ca         1 O1D      -0.084500
      5 C8          -4.1200     0.4660     1.2190 ca         1 O1D      -0.116000
      6 C10         -4.1260     0.4750    -1.1840 ca         1 O1D      -0.116000
      7 N            4.4610     1.7960     0.1330 nv         1 O1D      -1.074000
      8 C            3.6260     0.7020     0.0600 ca         1 O1D       0.324000
      9 O            0.0720     0.0450     0.0150 os         1 O1D      -0.345100
     10 C1           4.1530    -0.5990     0.0570 ca         1 O1D      -0.214000
     11 C11         -2.8710    -0.1180    -1.1880 ca         1 O1D      -0.084500
     12 C12          2.2410     0.8650     0.0430 ca         1 O1D      -0.219000
     13 C2           3.2980    -1.6830     0.0400 ca         1 O1D      -0.035000
     14 C3           1.9150    -1.5310     0.0270 ca         1 O1D      -0.245000
     15 C9          -4.7520     0.7700     0.0200 ca         1 O1D      -0.099000
     16 H1          -0.7160    -1.6690     0.8810 h1         1 O1D       0.040700
     17 H2          -0.7150    -1.6520    -0.8860 h1         1 O1D       0.040700
     18 H3          -2.3780    -0.3660     2.1500 ha         1 O1D       0.114500
     19 H4          -4.6040     0.6880     2.1610 ha         1 O1D       0.113500
     20 H5          -4.6150     0.7060    -2.1210 ha         1 O1D       0.113500
     21 H6           4.0810     2.6650    -0.2070 hn         1 O1D       0.449500
     22 H7           5.4040     1.6490    -0.1880 hn         1 O1D       0.449500
     23 H8           5.2260    -0.7460     0.0680 ha         1 O1D       0.112000
     24 H9          -2.3890    -0.3480    -2.1300 ha         1 O1D       0.114500
     25 H10          1.8120     1.8610     0.0460 ha         1 O1D       0.126000
     26 H11          3.7140    -2.6830     0.0360 ha         1 O1D       0.107000
     27 H12          1.2830    -2.4080     0.0130 ha         1 O1D       0.116000
     28 H13         -5.7310     1.2330     0.0250 ha         1 O1D       0.112000
@<TRIPOS>BOND
     1     1     9 1   
     2     1    12 ar  
     3     1    14 ar  
     4     2     3 1   
     5     2     9 1   
     6     2    16 1   
     7     2    17 1   
     8     3     4 ar  
     9     3    11 ar  
    10     4     5 ar  
    11     4    18 1   
    12     5    15 ar  
    13     5    19 1   
    14     6    11 ar  
    15     6    15 ar  
    16     6    20 1   
    17     7     8 1   
    18     7    21 1   
    19     7    22 1   
    20     8    10 ar  
    21     8    12 ar  
    22    10    13 ar  
    23    10    23 1   
    24    11    24 1   
    25    12    25 1   
    26    13    14 ar  
    27    13    26 1   
    28    14    27 1   
    29    15    28 1   
@<TRIPOS>SUBSTRUCTURE
     1 O1D         1 TEMP              0 ****  ****    0 ROOT
