@<TRIPOS>MOLECULE
O1D
   28    29     1     0     0
SMALL
No Charge or Current Charge


@<TRIPOS>ATOM
      1 C4           1.4430    -0.2150     0.0270 ca         1 O1D       0.180100
      2 C5          -0.8850    -1.0230     0.0190 c3         1 O1D       0.212900
      3 C6          -2.2760    -0.4020     0.0170 ca         1 O1D      -0.095300
      4 C7          -2.9270    -0.1140     1.2330 ca         1 O1D      -0.084500
      5 C8          -4.2120     0.4590     1.2310 ca         1 O1D      -0.116000
      6 C10         -4.2060     0.4640    -1.2010 ca         1 O1D      -0.116000
      7 N            4.5350     1.7700     0.0370 nv         1 O1D      -1.074000
      8 C            3.6960     0.6930     0.0340 ca         1 O1D       0.324000
      9 O            0.0880     0.0350     0.0240 os         1 O1D      -0.345100
     10 C1           4.2250    -0.6030     0.0330 ca         1 O1D      -0.214000
     11 C11         -2.9220    -0.1090    -1.2000 ca         1 O1D      -0.084500
     12 C12          2.3110     0.8870     0.0310 ca         1 O1D      -0.219000
     13 C2           3.3670    -1.7140     0.0280 ca         1 O1D      -0.035000
     14 C3           1.9750    -1.5230     0.0250 ca         1 O1D      -0.245000
     15 C9          -4.8520     0.7470     0.0140 ca         1 O1D      -0.099000
     16 H1          -0.7700    -1.6590     0.9070 h1         1 O1D       0.040700
     17 H2          -0.7660    -1.6550    -0.8710 h1         1 O1D       0.040700
     18 H3          -2.4380    -0.3320     2.1800 ha         1 O1D       0.114500
     19 H4          -4.7100     0.6790     2.1730 ha         1 O1D       0.113500
     20 H5          -4.7000     0.6880    -2.1440 ha         1 O1D       0.113500
     21 H6           4.1590     2.7020    -0.1210 hn         1 O1D       0.449500
     22 H7           5.5320     1.6330    -0.1170 hn         1 O1D       0.449500
     23 H8           5.3010    -0.7550     0.0360 ha         1 O1D       0.112000
     24 H9          -2.4280    -0.3230    -2.1460 ha         1 O1D       0.114500
     25 H10          1.8990     1.8910     0.0330 ha         1 O1D       0.126000
     26 H11          3.7800    -2.7220     0.0270 ha         1 O1D       0.107000
     27 H12          1.3310    -2.3970     0.0210 ha         1 O1D       0.116000
     28 H13         -5.8450     1.1900     0.0130 ha         1 O1D       0.112000
@<TRIPOS>BOND
     1     1     9 1   
     2     1    12 ar  
     3     1    14 ar  
     4     2     3 1   
     5     2     9 1   
     6     2    16 1   
     7     2    17 1   
     8     3     4 ar  
     9     3    11 ar  
    10     4     5 ar  
    11     4    18 1   
    12     5    15 ar  
    13     5    19 1   
    14     6    11 ar  
    15     6    15 ar  
    16     6    20 1   
    17     7     8 1   
    18     7    21 1   
    19     7    22 1   
    20     8    10 ar  
    21     8    12 ar  
    22    10    13 ar  
    23    10    23 1   
    24    11    24 1   
    25    12    25 1   
    26    13    14 ar  
    27    13    26 1   
    28    14    27 1   
    29    15    28 1   
@<TRIPOS>SUBSTRUCTURE
     1 O1D         1 TEMP              0 ****  ****    0 ROOT
