@<TRIPOS>MOLECULE
O1E
   32    34     1     0     0
SMALL
No Charge or Current Charge


@<TRIPOS>ATOM
      1 C4          11.7670    18.4270    21.7140 c3         1 O1E       0.270100
      2 C5          11.0110    17.2000    21.2270 ca         1 O1E      -0.161300
      3 C6          10.5440    16.2340    22.1580 ca         1 O1E      -0.067000
      4 N1          13.2650    17.6720    24.1250 nc         1 O1E      -0.426000
      5 C7           9.8410    15.0890    21.7200 ca         1 O1E      -0.131000
      6 C8           9.6230    14.9420    20.3450 ca         1 O1E      -0.042200
      7 N2          13.1960    18.1090    21.8280 nu         1 O1E      -0.902100
      8 C9           8.9870    14.1830    18.2740 cc         1 O1E      -0.164100
      9 C10          9.6700    15.3860    18.1560 cd         1 O1E      -0.238200
     10 C11         10.0730    15.8700    19.4510 ca         1 O1E      -0.106800
     11 C12         10.7730    17.0170    19.8440 ca         1 O1E      -0.049000
     12 N3           8.9720    13.9250    19.6630 na         1 O1E      -0.222700
     13 N           14.1130    17.1460    25.0890 nc         1 O1E      -0.297000
     14 C           16.3290    14.6070    25.3630 c3         1 O1E      -0.090100
     15 C2          15.2640    16.7660    24.5480 cd         1 O1E       0.412700
     16 C3          13.8340    17.6420    22.9310 cd         1 O1E       0.690300
     17 S           15.4390    17.0020    22.8280 ss         1 O1E      -0.371800
     18 H7          11.6210    19.2530    21.0040 h1         1 O1E       0.069200
     19 H6          11.3530    18.7580    22.6770 h1         1 O1E       0.069200
     20 H8          10.7280    16.3720    23.2220 ha         1 O1E       0.134000
     21 H9           9.4820    14.3470    22.4290 ha         1 O1E       0.117000
     22 H5          13.7070    17.9360    20.9680 hn         1 O1E       0.490000
     23 H11          8.5380    13.5280    17.5320 h4         1 O1E       0.212000
     24 H12          9.8700    15.8900    17.2120 ha         1 O1E       0.205000
     25 H13         11.1200    17.7380    19.1070 ha         1 O1E       0.109000
     26 H10          8.5460    13.1150    20.1040 hn         1 O1E       0.350000
     27 H2          17.1450    14.2010    25.9740 hc         1 O1E       0.040367
     28 H1          15.3800    14.2370    25.7690 hc         1 O1E       0.040367
     29 H           16.4420    14.2240    24.3420 hc         1 O1E       0.040367
     30 H4          17.3350    16.4880    24.9990 hc         1 O1E       0.065700
     31 H3          16.2930    16.5010    26.4110 hc         1 O1E       0.065700
     32 C1          16.3620    16.1500    25.3740 c3         1 O1E      -0.109700
@<TRIPOS>BOND
     1     1     2 1   
     2     1     7 1   
     3     1    18 1   
     4     1    19 1   
     5     2     3 ar  
     6     2    11 ar  
     7     3     5 ar  
     8     3    20 1   
     9     4    13 1   
    10     4    16 2   
    11     5     6 ar  
    12     5    21 1   
    13     6    10 ar  
    14     6    12 1   
    15     7    16 1   
    16     7    22 1   
    17     8     9 2   
    18     8    12 1   
    19     8    23 1   
    20     9    10 1   
    21     9    24 1   
    22    10    11 ar  
    23    11    25 1   
    24    12    26 1   
    25    13    15 2   
    26    14    27 1   
    27    14    28 1   
    28    14    29 1   
    29    14    32 1   
    30    15    17 1   
    31    15    32 1   
    32    16    17 1   
    33    30    32 1   
    34    31    32 1   
@<TRIPOS>SUBSTRUCTURE
     1 O1E         1 TEMP              0 ****  ****    0 ROOT
