@<TRIPOS>MOLECULE
O1E
   32    34     1     0     0
SMALL
abcg2


@<TRIPOS>ATOM
      1 C4          11.8770    18.4100    21.5900 c3         1 O1E       0.270100
      2 C5          11.0480    17.2220    21.1710 ca         1 O1E      -0.161300
      3 C6          10.5450    16.3310    22.1400 ca         1 O1E      -0.067000
      4 N1          13.1460    17.5100    24.0130 nc         1 O1E      -0.426000
      5 C7           9.8190    15.2110    21.7910 ca         1 O1E      -0.131000
      6 C8           9.5920    14.9840    20.4340 ca         1 O1E      -0.042200
      7 N2          13.2910    18.1020    21.7450 nu         1 O1E      -0.902100
      8 C9           8.9620    14.1870    18.4510 cc         1 O1E      -0.164100
      9 C10          9.6580    15.3300    18.1800 cd         1 O1E      -0.238200
     10 C11         10.0770    15.8620    19.4390 ca         1 O1E      -0.106800
     11 C12         10.8100    16.9890    19.8280 ca         1 O1E      -0.049000
     12 N3           8.9210    13.9800    19.8000 na         1 O1E      -0.222700
     13 N           13.9040    16.9980    25.0110 nc         1 O1E      -0.297000
     14 C           16.5590    14.6750    25.1340 c3         1 O1E      -0.090100
     15 C2          15.0950    16.6680    24.6660 cd         1 O1E       0.412700
     16 C3          13.7850    17.5800    22.8810 cd         1 O1E       0.690300
     17 S           15.4170    16.9810    22.9780 ss         1 O1E      -0.371800
     18 H7          11.8070    19.1990    20.8410 h1         1 O1E       0.069200
     19 H6          11.5180    18.8290    22.5290 h1         1 O1E       0.069200
     20 H8          10.7380    16.5330    23.1860 ha         1 O1E       0.134000
     21 H9           9.4370    14.5360    22.5470 ha         1 O1E       0.117000
     22 H5          13.8010    17.9270    20.8950 hn         1 O1E       0.490000
     23 H11          8.4850    13.4940    17.7770 h4         1 O1E       0.212000
     24 H12          9.8490    15.7410    17.2020 ha         1 O1E       0.205000
     25 H13         11.1880    17.6770    19.0800 ha         1 O1E       0.109000
     26 H10          8.4680    13.2020    20.2500 hn         1 O1E       0.350000
     27 H2          17.2970    14.2800    25.8310 hc         1 O1E       0.040367
     28 H1          15.7140    13.9880    25.1120 hc         1 O1E       0.040367
     29 H           17.0140    14.6820    24.1430 hc         1 O1E       0.040367
     30 H4          16.9900    16.7350    25.6120 hc         1 O1E       0.065700
     31 H3          15.6930    16.0410    26.5680 hc         1 O1E       0.065700
     32 C1          16.1220    16.0730    25.5660 c3         1 O1E      -0.109700
@<TRIPOS>BOND
     1     1     2 1   
     2     1     7 1   
     3     1    18 1   
     4     1    19 1   
     5     2     3 ar  
     6     2    11 ar  
     7     3     5 ar  
     8     3    20 1   
     9     4    13 1   
    10     4    16 2   
    11     5     6 ar  
    12     5    21 1   
    13     6    10 ar  
    14     6    12 1   
    15     7    16 1   
    16     7    22 1   
    17     8     9 2   
    18     8    12 1   
    19     8    23 1   
    20     9    10 1   
    21     9    24 1   
    22    10    11 ar  
    23    11    25 1   
    24    12    26 1   
    25    13    15 2   
    26    14    27 1   
    27    14    28 1   
    28    14    29 1   
    29    14    32 1   
    30    15    17 1   
    31    15    32 1   
    32    16    17 1   
    33    30    32 1   
    34    31    32 1   
@<TRIPOS>SUBSTRUCTURE
     1 O1E         1 TEMP              0 ****  ****    0 ROOT
