@<TRIPOS>MOLECULE
O1F
   30    31     1     0     0
SMALL
No Charge or Current Charge


@<TRIPOS>ATOM
      1 N1          20.1420     8.4600    -6.6570 ns         1 O1F      -0.399500
      2 C4          17.5570     6.1140    -5.7210 ce         1 O1F       0.025800
      3 C5          15.6420     2.8560    -6.1970 ca         1 O1F      -0.284000
      4 C6          16.6480     5.0790    -6.2990 ca         1 O1F      -0.140800
      5 C7          14.9180     3.1280    -7.3680 ca         1 O1F       0.187100
      6 C8          16.5060     3.8310    -5.6570 ca         1 O1F       0.198100
      7 C10         18.4770     6.9240    -6.3540 cd         1 O1F      -0.182600
      8 C1          17.1720     2.3610    -3.7810 c3         1 O1F       0.149900
      9 O3          17.2380     3.6020    -4.5070 os         1 O1F      -0.344100
     10 O1          14.0900     2.1630    -7.8690 oh         1 O1F      -0.502100
     11 C9          15.0420     4.3810    -8.0130 ca         1 O1F       0.070100
     12 O4          14.3050     4.6180    -9.1650 os         1 O1F      -0.326100
     13 C2          14.3850     5.8570    -9.8930 c3         1 O1F       0.141900
     14 C3          15.9070     5.3540    -7.4660 ca         1 O1F      -0.095000
     15 S2          18.7770     6.8920    -8.0940 ss         1 O1F      -0.069200
     16 C12         20.0430     8.1330    -7.9760 cs         1 O1F       0.345000
     17 S1          20.9430     8.7730    -9.2280 s          1 O1F      -0.436400
     18 C11         19.3700     7.8870    -5.6920 c          1 O1F       0.571200
     19 O2          19.4310     8.1460    -4.5010 o          1 O1F      -0.491000
     20 H8          20.8170     9.1550    -6.3700 hn         1 O1F       0.360500
     21 H45         17.5200     6.2060    -4.6330 ha         1 O1F       0.213000
     22 H21         15.5260     1.8890    -5.7180 ha         1 O1F       0.126000
     23 H332        17.8310     2.3980    -2.9050 h1         1 O1F       0.048700
     24 H333        16.1500     2.1690    -3.4290 h1         1 O1F       0.048700
     25 H331        17.4920     1.5220    -4.4110 h1         1 O1F       0.048700
     26 H1          14.1430     1.3790    -7.2840 ho         1 O1F       0.466000
     27 H231        13.7280     5.8240   -10.7710 h1         1 O1F       0.046033
     28 H232        14.0690     6.7010    -9.2660 h1         1 O1F       0.046033
     29 H233        15.4090     6.0400   -10.2420 h1         1 O1F       0.046033
     30 H32         16.0020     6.3320    -7.9280 ha         1 O1F       0.131000
@<TRIPOS>BOND
     1     1    16 1   
     2     1    18 1   
     3     1    20 1   
     4     2     4 1   
     5     2     7 2   
     6     2    21 1   
     7     3     5 ar  
     8     3     6 ar  
     9     3    22 1   
    10     4     6 ar  
    11     4    14 ar  
    12     5    10 1   
    13     5    11 ar  
    14     6     9 1   
    15     7    15 1   
    16     7    18 1   
    17     8     9 1   
    18     8    23 1   
    19     8    24 1   
    20     8    25 1   
    21    10    26 1   
    22    11    12 1   
    23    11    14 ar  
    24    12    13 1   
    25    13    27 1   
    26    13    28 1   
    27    13    29 1   
    28    14    30 1   
    29    15    16 1   
    30    16    17 2   
    31    18    19 2   
@<TRIPOS>SUBSTRUCTURE
     1 O1F         1 TEMP              0 ****  ****    0 ROOT
