@<TRIPOS>MOLECULE
O1F
   30    31     1     0     0
SMALL
abcg2


@<TRIPOS>ATOM
      1 N1          20.0720     8.6040    -6.6090 ns         1 O1F      -0.399500
      2 C4          17.8920     5.8090    -5.9190 ce         1 O1F       0.025800
      3 C5          15.5390     2.9230    -6.0850 ca         1 O1F      -0.284000
      4 C6          16.8630     4.9410    -6.4040 ca         1 O1F      -0.140800
      5 C7          14.8450     3.1830    -7.2580 ca         1 O1F       0.187100
      6 C8          16.5400     3.7860    -5.6480 ca         1 O1F       0.198100
      7 C10         18.5190     6.8630    -6.4980 cd         1 O1F      -0.182600
      8 C1          16.9390     2.4410    -3.7050 c3         1 O1F       0.149900
      9 O3          17.2530     3.5710    -4.5220 os         1 O1F      -0.344100
     10 O1          13.8720     2.3680    -7.7180 oh         1 O1F      -0.502100
     11 C9          15.1380     4.3330    -8.0240 ca         1 O1F       0.070100
     12 O4          14.3890     4.5090    -9.1450 os         1 O1F      -0.326100
     13 C2          14.6510     5.6640    -9.9400 c3         1 O1F       0.141900
     14 C3          16.1330     5.1800    -7.5880 ca         1 O1F      -0.095000
     15 S2          18.3340     7.5220    -8.1220 ss         1 O1F      -0.069200
     16 C12         19.5770     8.7230    -7.8660 cs         1 O1F       0.345000
     17 S1          20.0500     9.8210    -9.0040 s          1 O1F      -0.436400
     18 C11         19.5550     7.6140    -5.7750 c          1 O1F       0.571200
     19 O2          19.9440     7.4440    -4.6330 o          1 O1F      -0.491000
     20 H8          20.8050     9.2220    -6.2820 hn         1 O1F       0.360500
     21 H45         18.2530     5.5920    -4.9210 ha         1 O1F       0.213000
     22 H21         15.2850     2.0340    -5.5250 ha         1 O1F       0.126000
     23 H332        17.6230     2.4900    -2.8620 h1         1 O1F       0.048700
     24 H333        15.9080     2.4930    -3.3490 h1         1 O1F       0.048700
     25 H331        17.0960     1.5100    -4.2530 h1         1 O1F       0.048700
     26 H1          13.7620     1.6120    -7.1230 ho         1 O1F       0.466000
     27 H231        13.9550     5.6150   -10.7740 h1         1 O1F       0.046033
     28 H232        14.4780     6.5800    -9.3700 h1         1 O1F       0.046033
     29 H233        15.6770     5.6560   -10.3150 h1         1 O1F       0.046033
     30 H32         16.3330     6.0710    -8.1600 ha         1 O1F       0.131000
@<TRIPOS>BOND
     1     1    16 1   
     2     1    18 1   
     3     1    20 1   
     4     2     4 1   
     5     2     7 2   
     6     2    21 1   
     7     3     5 ar  
     8     3     6 ar  
     9     3    22 1   
    10     4     6 ar  
    11     4    14 ar  
    12     5    10 1   
    13     5    11 ar  
    14     6     9 1   
    15     7    15 1   
    16     7    18 1   
    17     8     9 1   
    18     8    23 1   
    19     8    24 1   
    20     8    25 1   
    21    10    26 1   
    22    11    12 1   
    23    11    14 ar  
    24    12    13 1   
    25    13    27 1   
    26    13    28 1   
    27    13    29 1   
    28    14    30 1   
    29    15    16 1   
    30    16    17 2   
    31    18    19 2   
@<TRIPOS>SUBSTRUCTURE
     1 O1F         1 TEMP              0 ****  ****    0 ROOT
