@<TRIPOS>MOLECULE
O1H
   48    53     1     0     0
SMALL
bcc


@<TRIPOS>ATOM
      1 N1          29.8950    29.2620    -3.8050 na         1 O1H       0.111400
      2 N3          26.8470    33.2470     0.0050 nc         1 O1H      -0.203400
      3 C4          30.5350    28.1490    -2.0350 cc         1 O1H      -0.288300
      4 C5          30.9380    27.5230    -3.2260 cc         1 O1H       0.305200
      5 C6          29.2450    30.2000    -4.6990 c3         1 O1H       0.096600
      6 C7          27.7690    30.3070    -4.4150 ca         1 O1H      -0.093300
      7 C8          26.9780    29.1600    -4.3960 ca         1 O1H      -0.113500
      8 C10         25.0610    30.4850    -3.8240 ca         1 O1H      -0.015000
      9 C13         27.1910    31.5410    -4.1410 ca         1 O1H      -0.113500
     10 C15         27.2760    31.1210    -0.5470 ca         1 O1H      -0.065200
     11 C17         25.0600    30.2830     0.2460 ca         1 O1H       0.034800
     12 C20         21.9510    27.5880     0.6060 cc         1 O1H       0.352800
     13 C21         23.1740    28.3110     0.6070 ca         1 O1H      -0.231900
     14 C22         24.4930    28.0620     1.0040 ca         1 O1H      -0.037000
     15 N2          22.5370    30.6510    -3.3160 n1         1 O1H      -0.376800
     16 C11         23.6650    30.5770    -3.5380 cg         1 O1H       0.245800
     17 C9          25.6300    29.2410    -4.1010 ca         1 O1H      -0.090500
     18 C12         25.8420    31.6390    -3.8440 ca         1 O1H      -0.090500
     19 N           30.5380    28.2010    -4.2850 nd         1 O1H      -0.516800
     20 C3          29.8630    29.2740    -2.4520 cd         1 O1H      -0.059300
     21 C2          29.1620    30.3350    -1.7150 ca         1 O1H       0.009000
     22 C1          29.6970    31.6450    -1.7180 ca         1 O1H      -0.137000
     23 C14         27.9550    30.0450    -1.1130 ca         1 O1H      -0.093000
     24 N5          26.0610    31.2610     0.0470 na         1 O1H       0.165800
     25 N4          25.8460    32.5400     0.3560 nd         1 O1H      -0.142400
     26 C16         27.7690    32.4250    -0.5660 ca         1 O1H       0.015400
     27 C           29.0100    32.6870    -1.1500 ca         1 O1H       0.089400
     28 CL          29.6260    34.2910    -1.1630 cl         1 O1H      -0.061400
     29 C23         25.4290    29.0530     0.8270 ca         1 O1H      -0.175000
     30 C19         22.8360    29.5550     0.0450 ca         1 O1H      -0.033200
     31 C18         23.7740    30.5690    -0.1510 ca         1 O1H      -0.124000
     32 N7          20.9860    28.3120     0.0970 nd         1 O1H      -0.501100
     33 N6          21.5170    29.4900    -0.2360 na         1 O1H       0.003900
     34 H1          30.7130    27.8350    -1.0200 ha         1 O1H       0.168000
     35 H2          31.4980    26.6090    -3.3450 h4         1 O1H       0.041100
     36 H4          29.4180    29.8320    -5.7100 h1         1 O1H       0.080200
     37 H3          29.7190    31.1800    -4.6280 h1         1 O1H       0.080200
     38 H5          27.4150    28.1930    -4.6100 ha         1 O1H       0.147500
     39 H8          27.8020    32.4340    -4.1450 ha         1 O1H       0.147500
     40 H12         21.7620    26.5840     0.9530 h4         1 O1H       0.053800
     41 H13         24.7750    27.1180     1.4510 ha         1 O1H       0.145000
     42 H6          25.0190    28.3490    -4.0880 ha         1 O1H       0.150000
     43 H7          25.4000    32.6020    -3.6270 ha         1 O1H       0.150000
     44 H           30.6570    31.8260    -2.1820 ha         1 O1H       0.157000
     45 H9          27.5460    29.0450    -1.1340 ha         1 O1H       0.161000
     46 H14         26.4490    28.8970     1.1500 ha         1 O1H       0.147000
     47 H10         23.5110    31.5170    -0.5990 ha         1 O1H       0.164000
     48 H11         20.9410    30.1950    -0.6670 hn         1 O1H       0.339700
@<TRIPOS>BOND
     1     1     5 1   
     2     1    19 1   
     3     1    20 1   
     4     2    25 2   
     5     2    26 1   
     6     3     4 1   
     7     3    20 2   
     8     3    34 1   
     9     4    19 2   
    10     4    35 1   
    11     5     6 1   
    12     5    36 1   
    13     5    37 1   
    14     6     7 ar  
    15     6     9 ar  
    16     7    17 ar  
    17     7    38 1   
    18     8    16 1   
    19     8    17 ar  
    20     8    18 ar  
    21     9    18 ar  
    22     9    39 1   
    23    10    23 ar  
    24    10    24 1   
    25    10    26 ar  
    26    11    24 1   
    27    11    29 ar  
    28    11    31 ar  
    29    12    13 1   
    30    12    32 2   
    31    12    40 1   
    32    13    14 ar  
    33    13    30 ar  
    34    14    29 ar  
    35    14    41 1   
    36    15    16 3   
    37    17    42 1   
    38    18    43 1   
    39    20    21 1   
    40    21    22 ar  
    41    21    23 ar  
    42    22    27 ar  
    43    22    44 1   
    44    23    45 1   
    45    24    25 1   
    46    26    27 ar  
    47    27    28 1   
    48    29    46 1   
    49    30    31 ar  
    50    30    33 1   
    51    31    47 1   
    52    32    33 1   
    53    33    48 1   
@<TRIPOS>SUBSTRUCTURE
     1 O1H         1 TEMP              0 ****  ****    0 ROOT
