@<TRIPOS>MOLECULE
O1H
   48    53     1     0     0
SMALL
No Charge or Current Charge


@<TRIPOS>ATOM
      1 N1          29.4920    29.1540    -3.9760 na         1 O1H       0.132800
      2 N3          26.1950    32.9280     0.5140 nc         1 O1H      -0.203400
      3 C4          28.8240    27.7380    -2.4550 cc         1 O1H      -0.205000
      4 C5          29.4700    27.0900    -3.5080 cc         1 O1H       0.239900
      5 C6          29.6540    30.3330    -4.8570 c3         1 O1H       0.125900
      6 C7          28.3760    31.1400    -5.1160 ca         1 O1H      -0.093300
      7 C8          27.1130    30.5130    -5.1770 ca         1 O1H      -0.095500
      8 C10         26.0340    32.6720    -5.5270 ca         1 O1H      -0.015000
      9 C13         28.4570    32.5370    -5.2820 ca         1 O1H      -0.095500
     10 C15         26.6390    30.8310    -0.2070 ca         1 O1H      -0.065200
     11 C17         25.0080    29.6840     1.2030 ca         1 O1H       0.034800
     12 C20         22.9170    26.2110     2.2730 cc         1 O1H       0.352800
     13 C21         23.7070    27.4080     2.1280 ca         1 O1H      -0.231900
     14 C22         24.4910    28.1270     3.0390 ca         1 O1H      -0.019000
     15 N2          23.8750    34.0880    -5.8770 n1         1 O1H      -0.466000
     16 C11         24.8430    33.4520    -5.7250 cg         1 O1H       0.335000
     17 C9          25.9490    31.2750    -5.3770 ca         1 O1H      -0.072500
     18 C12         27.2930    33.3000    -5.4820 ca         1 O1H      -0.072500
     19 N           29.8870    27.9040    -4.4510 nd         1 O1H      -0.516800
     20 C3          28.8670    29.0790    -2.7040 cd         1 O1H      -0.110000
     21 C2          28.2340    30.1460    -1.8910 ca         1 O1H       0.009000
     22 C1          28.5940    31.5170    -2.0210 ca         1 O1H      -0.119000
     23 C14         27.2450    29.7990    -0.9380 ca         1 O1H      -0.075000
     24 N5          25.6670    30.8220     0.7420 na         1 O1H       0.165800
     25 N4          25.3910    32.0990     1.1870 nd         1 O1H      -0.142400
     26 C16         26.9620    32.1420    -0.3480 ca         1 O1H       0.015400
     27 C           27.9560    32.5200    -1.2620 ca         1 O1H       0.181000
     28 Cl          28.4150    34.2090    -1.4620 cl         1 O1H      -0.153000
     29 C23         25.1470    29.2820     2.5580 ca         1 O1H      -0.157000
     30 C19         23.5690    27.7890     0.8320 ca         1 O1H      -0.033200
     31 C18         24.2030    28.9260     0.3190 ca         1 O1H      -0.106000
     32 N7          22.3190    25.8700     1.1180 nd         1 O1H      -0.501100
     33 N6          22.7390    26.8700     0.2270 na         1 O1H      -0.046400
     34 H1          28.3990    27.2310    -1.5950 ha         1 O1H       0.150000
     35 H2          29.6360    26.0260    -3.6230 h4         1 O1H       0.041100
     36 H4          30.0380    29.9880    -5.8250 h1         1 O1H       0.080200
     37 H3          30.4290    30.9770    -4.4260 h1         1 O1H       0.080200
     38 H5          27.0260    29.4350    -5.0620 ha         1 O1H       0.129500
     39 H8          29.4220    33.0380    -5.2450 ha         1 O1H       0.129500
     40 H12         22.7420    25.5780     3.1330 h4         1 O1H       0.053800
     41 H13         24.5910    27.8100     4.0760 ha         1 O1H       0.127000
     42 H6          24.9820    30.7770    -5.4140 ha         1 O1H       0.132000
     43 H7          27.3720    34.3790    -5.6000 ha         1 O1H       0.132000
     44 H           29.3900    31.8220    -2.6860 ha         1 O1H       0.139000
     45 H9          26.9340    28.7690    -0.7890 ha         1 O1H       0.143000
     46 H14         25.7660    29.8650     3.2360 ha         1 O1H       0.129000
     47 H10         24.0800    29.2180    -0.7220 ha         1 O1H       0.146000
     48 H11         22.4400    26.8770    -0.7480 hn         1 O1H       0.390000
@<TRIPOS>BOND
     1     1     5 1   
     2     1    19 1   
     3     1    20 1   
     4     2    25 2   
     5     2    26 1   
     6     3     4 1   
     7     3    20 2   
     8     3    34 1   
     9     4    19 2   
    10     4    35 1   
    11     5     6 1   
    12     5    36 1   
    13     5    37 1   
    14     6     7 ar  
    15     6     9 ar  
    16     7    17 ar  
    17     7    38 1   
    18     8    16 1   
    19     8    17 ar  
    20     8    18 ar  
    21     9    18 ar  
    22     9    39 1   
    23    10    23 ar  
    24    10    24 1   
    25    10    26 ar  
    26    11    24 1   
    27    11    29 ar  
    28    11    31 ar  
    29    12    13 1   
    30    12    32 2   
    31    12    40 1   
    32    13    14 ar  
    33    13    30 ar  
    34    14    29 ar  
    35    14    41 1   
    36    15    16 3   
    37    17    42 1   
    38    18    43 1   
    39    20    21 1   
    40    21    22 ar  
    41    21    23 ar  
    42    22    27 ar  
    43    22    44 1   
    44    23    45 1   
    45    24    25 1   
    46    26    27 ar  
    47    27    28 1   
    48    29    46 1   
    49    30    31 ar  
    50    30    33 1   
    51    31    47 1   
    52    32    33 1   
    53    33    48 1   
@<TRIPOS>SUBSTRUCTURE
     1 O1H         1 TEMP              0 ****  ****    0 ROOT
