@<TRIPOS>MOLECULE
O1I
   35    36     1     0     0
SMALL
No Charge or Current Charge


@<TRIPOS>ATOM
      1 N1           8.3360    -0.5680    20.4460 ns         1 O1I      -0.155000
      2 C4           7.8340    -0.0410    18.1240 ca         1 O1I       0.319900
      3 C5           7.5210     0.1020    19.4930 ca         1 O1I      -0.100000
      4 C6           8.9630    -0.0830    21.5860 c          1 O1I       0.618100
      5 C7           9.7170    -1.1450    22.4090 c3         1 O1I      -0.096400
      6 C8           9.1030    -1.2760    23.8190 c3         1 O1I       0.173600
      7 C10         11.7550     0.1830    23.2340 ca         1 O1I      -0.088000
      8 C13         13.4810    -1.3680    21.6550 ca         1 O1I       0.123000
      9 Cl          14.5610    -2.3400    20.6630 cl         1 O1I      -0.209000
     10 C12         14.0020    -0.3400    22.4550 ca         1 O1I      -0.094000
     11 C11         13.1380     0.4370    23.2440 ca         1 O1I      -0.101000
     12 C14         12.1000    -1.6250    21.6440 ca         1 O1I      -0.099000
     13 C9          11.2230    -0.8540    22.4360 ca         1 O1I      -0.082300
     14 O1           7.7500    -1.7400    23.7160 oh         1 O1I      -0.672000
     15 O            8.9560     1.1060    21.8940 o          1 O1I      -0.587100
     16 C1           6.3910     0.8800    19.8480 ca         1 O1I      -0.017300
     17 C            5.9000     1.0360    21.2840 c3         1 O1I      -0.056800
     18 N            7.1360     0.5510    17.1290 nb         1 O1I      -0.656000
     19 C3           6.0750     1.3110    17.4750 ca         1 O1I       0.328900
     20 C2           5.6710     1.4940    18.8070 ca         1 O1I      -0.160000
     21 H1           8.4810    -1.5530    20.2640 hn         1 O1I       0.155000
     22 H3           9.5630    -2.1140    21.9190 hc         1 O1I       0.072700
     23 H4           9.7030    -1.9880    24.4030 h1         1 O1I       0.040200
     24 H5           9.1370    -0.3070    24.3360 h1         1 O1I       0.040200
     25 H6          11.1000     0.8020    23.8430 ha         1 O1I       0.134000
     26 H7          15.0720    -0.1440    22.4610 ha         1 O1I       0.133000
     27 H8          13.5380     1.2390    23.8610 ha         1 O1I       0.123000
     28 H9          11.7160    -2.4260    21.0170 ha         1 O1I       0.126000
     29 H10          7.4190    -1.8680    24.6340 ho         1 O1I       0.451000
     30 H11          6.0960     0.1390    21.8840 hc         1 O1I       0.056700
     31 H12          6.3810     1.8890    21.7760 hc         1 O1I       0.056700
     32 H13          4.8170     1.2090    21.3160 hc         1 O1I       0.056700
     33 H14          5.5240     1.7780    16.6600 h4         1 O1I       0.021100
     34 H15          4.7970     2.1030    19.0200 ha         1 O1I       0.124000
     35 H2           8.6870    -0.6450    17.8140 h4         1 O1I       0.019100
@<TRIPOS>BOND
     1     1     3 1   
     2     1     4 1   
     3     1    21 1   
     4     2     3 ar  
     5     2    18 ar  
     6     2    35 1   
     7     3    16 ar  
     8     4     5 1   
     9     4    15 2   
    10     5     6 1   
    11     5    13 1   
    12     5    22 1   
    13     6    14 1   
    14     6    23 1   
    15     6    24 1   
    16     7    11 ar  
    17     7    13 ar  
    18     7    25 1   
    19     8     9 1   
    20     8    10 ar  
    21     8    12 ar  
    22    10    11 ar  
    23    10    26 1   
    24    11    27 1   
    25    12    13 ar  
    26    12    28 1   
    27    14    29 1   
    28    16    17 1   
    29    16    20 ar  
    30    17    30 1   
    31    17    31 1   
    32    17    32 1   
    33    18    19 ar  
    34    19    20 ar  
    35    19    33 1   
    36    20    34 1   
@<TRIPOS>SUBSTRUCTURE
     1 O1I         1 TEMP              0 ****  ****    0 ROOT
