@<TRIPOS>MOLECULE
O1I
   35    36     1     0     0
SMALL
abcg2


@<TRIPOS>ATOM
      1 N1           8.3520    -0.6090    20.5530 ns         1 O1I      -0.155000
      2 C4           8.2510     0.3710    18.3480 ca         1 O1I       0.319900
      3 C5           7.6640     0.1790    19.5960 ca         1 O1I      -0.100000
      4 C6           8.8040    -0.1430    21.7460 c          1 O1I       0.618100
      5 C7           9.6190    -1.1590    22.5530 c3         1 O1I      -0.096400
      6 C8           9.1770    -1.1520    24.0100 c3         1 O1I       0.173600
      7 C10         11.6730     0.2900    22.9360 ca         1 O1I      -0.088000
      8 C13         13.2570    -1.5000    21.5540 ca         1 O1I       0.123000
      9 CL          14.2520    -2.6410    20.6700 cl         1 O1I      -0.209000
     10 C12         13.8400    -0.3590    22.0850 ca         1 O1I      -0.094000
     11 C11         13.0320     0.5350    22.7790 ca         1 O1I      -0.101000
     12 C14         11.9030    -1.7630    21.7030 ca         1 O1I      -0.099000
     13 C9          11.0980    -0.8640    22.4010 ca         1 O1I      -0.082300
     14 O1           7.8180    -1.5900    24.0490 oh         1 O1I      -0.672000
     15 O            8.6040     0.9980    22.1410 o          1 O1I      -0.587100
     16 C1           6.4010     0.7230    19.8550 ca         1 O1I      -0.017300
     17 C            5.6840     0.5090    21.1510 c3         1 O1I      -0.056800
     18 N            7.6830     1.0640    17.3610 nb         1 O1I      -0.656000
     19 C3           6.4870     1.6070    17.6120 ca         1 O1I       0.328900
     20 C2           5.8250     1.4620    18.8220 ca         1 O1I      -0.160000
     21 H1           8.6800    -1.5160    20.2540 hn         1 O1I       0.155000
     22 H3           9.4280    -2.1560    22.1550 hc         1 O1I       0.072700
     23 H4           9.8220    -1.8280    24.5790 h1         1 O1I       0.040200
     24 H5           9.2690    -0.1460    24.4260 h1         1 O1I       0.040200
     25 H6          11.0590     1.0040    23.4680 ha         1 O1I       0.134000
     26 H7          14.8980    -0.1740    21.9600 ha         1 O1I       0.133000
     27 H8          13.4700     1.4320    23.1990 ha         1 O1I       0.123000
     28 H9          11.4760    -2.6630    21.2810 ha         1 O1I       0.126000
     29 H10          7.4820    -1.4610    24.9440 ho         1 O1I       0.451000
     30 H11          5.8060    -0.5180    21.4970 hc         1 O1I       0.056700
     31 H12          6.0980     1.1570    21.9260 hc         1 O1I       0.056700
     32 H13          4.6220     0.7270    21.0430 hc         1 O1I       0.056700
     33 H14          6.0350     2.1770    16.8070 h4         1 O1I       0.021100
     34 H15          4.8480     1.9090    18.9570 ha         1 O1I       0.124000
     35 H2           9.2250    -0.0660    18.1500 h4         1 O1I       0.019100
@<TRIPOS>BOND
     1     1     3 1   
     2     1     4 1   
     3     1    21 1   
     4     2     3 ar  
     5     2    18 ar  
     6     2    35 1   
     7     3    16 ar  
     8     4     5 1   
     9     4    15 2   
    10     5     6 1   
    11     5    13 1   
    12     5    22 1   
    13     6    14 1   
    14     6    23 1   
    15     6    24 1   
    16     7    11 ar  
    17     7    13 ar  
    18     7    25 1   
    19     8     9 1   
    20     8    10 ar  
    21     8    12 ar  
    22    10    11 ar  
    23    10    26 1   
    24    11    27 1   
    25    12    13 ar  
    26    12    28 1   
    27    14    29 1   
    28    16    17 1   
    29    16    20 ar  
    30    17    30 1   
    31    17    31 1   
    32    17    32 1   
    33    18    19 ar  
    34    19    20 ar  
    35    19    33 1   
    36    20    34 1   
@<TRIPOS>SUBSTRUCTURE
     1 O1I         1 TEMP              0 ****  ****    0 ROOT
