@<TRIPOS>MOLECULE
O1J
   21    21     1     0     0
SMALL
No Charge or Current Charge


@<TRIPOS>ATOM
      1 C4           2.1060     0.4920     1.1130 ca         1 O1J      -0.091000
      2 C5           3.3610    -0.1240     1.2580 ca         1 O1J      -0.123500
      3 C6           3.9860    -0.7180     0.1490 ca         1 O1J      -0.124000
      4 C7           3.3540    -0.6970    -1.1060 ca         1 O1J      -0.123500
      5 C8           2.0990    -0.0800    -1.2520 ca         1 O1J      -0.091000
      6 C           -3.3890    -0.3300     0.0780 c          1 O1J       0.726000
      7 O           -4.5540     0.0390    -0.0080 o          1 O1J      -0.721500
      8 C1          -2.2710     0.7360    -0.1850 c3         1 O1J       0.006600
      9 C3           1.4680     0.5190    -0.1430 ca         1 O1J      -0.056300
     10 O1          -3.0770    -1.4820     0.3560 o          1 O1J      -0.721500
     11 O2          -0.9220     0.2200    -0.0640 os         1 O1J      -0.412000
     12 H1           1.6270     0.9490     1.9760 ha         1 O1J       0.115500
     13 H2           3.8480    -0.1410     2.2310 ha         1 O1J       0.098500
     14 H3           4.9570    -1.1950     0.2620 ha         1 O1J       0.095000
     15 H4           3.8370    -1.1570    -1.9650 ha         1 O1J       0.098500
     16 H5           1.6150    -0.0680    -2.2260 ha         1 O1J       0.115500
     17 H7          -2.4260     1.1400    -1.1940 h1         1 O1J      -0.001800
     18 H8          -2.4210     1.5580     0.5280 h1         1 O1J      -0.001800
     19 H9           0.0270     2.0230     0.4100 h1         1 O1J       0.007700
     20 H10          0.0220     1.6040    -1.3160 h1         1 O1J       0.007700
     21 C2           0.1100     1.1910    -0.3020 c3         1 O1J       0.196900
@<TRIPOS>BOND
     1     1     2 ar  
     2     1     9 ar  
     3     1    12 1   
     4     2     3 ar  
     5     2    13 1   
     6     3     4 ar  
     7     3    14 1   
     8     4     5 ar  
     9     4    15 1   
    10     5     9 ar  
    11     5    16 1   
    12     6     7 1   
    13     6     8 1   
    14     6    10 1   
    15     8    11 1   
    16     8    17 1   
    17     8    18 1   
    18     9    21 1   
    19    11    21 1   
    20    19    21 1   
    21    20    21 1   
@<TRIPOS>SUBSTRUCTURE
     1 O1J         1 TEMP              0 ****  ****    0 ROOT
