@<TRIPOS>MOLECULE
O1J
   21    21     1     0     0
SMALL
bcc


@<TRIPOS>ATOM
      1 C4           1.9090     0.3090     1.0460 ca         1 O1J      -0.109000
      2 C5           3.1520    -0.2610     1.2730 ca         1 O1J      -0.141500
      3 C6           3.9360    -0.6780     0.2030 ca         1 O1J      -0.142000
      4 C7           3.4680    -0.5190    -1.0940 ca         1 O1J      -0.141500
      5 C8           2.2200     0.0510    -1.3170 ca         1 O1J      -0.109000
      6 C           -3.2800    -0.2510     0.3280 c          1 O1J       0.936600
      7 O           -4.4410     0.2070     0.2880 o          1 O1J      -0.826800
      8 C1          -2.1990     0.7410    -0.1260 c3         1 O1J      -0.016600
      9 C3           1.4310     0.4740    -0.2530 ca         1 O1J      -0.056300
     10 O1          -2.9270    -1.3890     0.6730 o          1 O1J      -0.826800
     11 O2          -0.9080     0.1970    -0.0220 os         1 O1J      -0.365600
     12 H1           1.3080     0.6360     1.8860 ha         1 O1J       0.133500
     13 H2           3.5140    -0.3800     2.2870 ha         1 O1J       0.116500
     14 H3           4.9070    -1.1220     0.3820 ha         1 O1J       0.113000
     15 H4           4.0710    -0.8410    -1.9330 ha         1 O1J       0.116500
     16 H5           1.8580     0.1700    -2.3320 ha         1 O1J       0.133500
     17 H7          -2.4140     1.0400    -1.1640 h1         1 O1J      -0.001800
     18 H8          -2.2850     1.6600     0.4750 h1         1 O1J      -0.001800
     19 H9           0.0120     2.0490     0.0400 h1         1 O1J       0.007700
     20 H10         -0.0560     1.3020    -1.5550 h1         1 O1J       0.007700
     21 C2           0.0790     1.0840    -0.4850 c3         1 O1J       0.173700
@<TRIPOS>BOND
     1     1     2 ar  
     2     1     9 ar  
     3     1    12 1   
     4     2     3 ar  
     5     2    13 1   
     6     3     4 ar  
     7     3    14 1   
     8     4     5 ar  
     9     4    15 1   
    10     5     9 ar  
    11     5    16 1   
    12     6     7 1   
    13     6     8 1   
    14     6    10 1   
    15     8    11 1   
    16     8    17 1   
    17     8    18 1   
    18     9    21 1   
    19    11    21 1   
    20    19    21 1   
    21    20    21 1   
@<TRIPOS>SUBSTRUCTURE
     1 O1J         1 TEMP              0 ****  ****    0 ROOT
