@<TRIPOS>MOLECULE
O1K
   22    24     1     0     0
SMALL
abcg2


@<TRIPOS>ATOM
      1 C02         24.5510    43.0090    79.1210 ca         1 O1K       0.123900
      2 C03         24.7620    42.4210    80.3560 ca         1 O1K      -0.145200
      3 C04         25.3980    43.1840    81.3530 ca         1 O1K       0.119800
      4 C06         25.6570    44.8540    79.8890 ca         1 O1K       0.101900
      5 C07         25.3890    42.4170    82.5560 cc         1 O1K      -0.343800
      6 C08         24.7600    41.2520    82.2620 cd         1 O1K      -0.104100
      7 C10         23.7020    40.1610    80.3550 ca         1 O1K       0.247500
      8 C11         24.0520    39.5940    79.1310 ca         1 O1K      -0.021000
      9 C12         23.2480    38.5590    78.6750 ca         1 O1K       0.143900
     10 C14         22.0380    38.6600    80.5500 ca         1 O1K       0.237000
     11 N01         25.0160    44.2280    78.8990 nb         1 O1K      -0.171000
     12 N05         25.8620    44.4100    81.1130 nb         1 O1K      -0.130000
     13 N09         24.3940    41.2210    80.9290 na         1 O1K      -0.103200
     14 N13         22.2330    38.0900    79.3820 nb         1 O1K      -0.152000
     15 N15         22.6980    39.6700    81.0630 nb         1 O1K      -0.186000
     16 CL17        25.4460    40.0500    78.2530 cl         1 O1K      -0.124000
     17 H1          24.0050    42.5290    78.3170 h4         1 O1K       0.030100
     18 H2          26.0350    45.8440    79.6600 h5         1 O1K       0.053100
     19 H3          25.7990    42.6960    83.5120 ha         1 O1K       0.229000
     20 H4          24.5550    40.4030    82.8950 h4         1 O1K       0.234000
     21 H5          23.4540    38.0860    77.7220 h4         1 O1K       0.051100
     22 CL1         20.7670    38.0200    81.5130 cl         1 O1K      -0.091000
@<TRIPOS>BOND
     1     1     2 ar  
     2     1    11 ar  
     3     1    17 1   
     4     2     3 ar  
     5     2    13 1   
     6     3     5 1   
     7     3    12 ar  
     8     4    11 ar  
     9     4    12 ar  
    10     4    18 1   
    11     5     6 2   
    12     5    19 1   
    13     6    13 1   
    14     6    20 1   
    15     7     8 ar  
    16     7    13 1   
    17     7    15 ar  
    18     8     9 ar  
    19     8    16 1   
    20     9    14 ar  
    21     9    21 1   
    22    10    14 ar  
    23    10    15 ar  
    24    10    22 1   
@<TRIPOS>SUBSTRUCTURE
     1 O1K         1 TEMP              0 ****  ****    0 ROOT
