@<TRIPOS>MOLECULE
O1K
   22    24     1     0     0
SMALL
No Charge or Current Charge


@<TRIPOS>ATOM
      1 C02         24.3120    43.2050    79.1990 ca         1 O1K       0.123900
      2 C03         24.8480    42.4790    80.2730 ca         1 O1K      -0.145200
      3 C04         25.4040    43.1580    81.3170 ca         1 O1K       0.119800
      4 C06         24.9240    45.1370    80.3190 ca         1 O1K       0.101900
      5 C07         25.8230    42.1860    82.2810 cc         1 O1K      -0.343800
      6 C08         25.4670    40.9320    81.7840 cd         1 O1K      -0.104100
      7 C10         23.9370    40.1870    80.1610 ca         1 O1K       0.247500
      8 C11         24.3320    38.9900    79.5120 ca         1 O1K      -0.021000
      9 C12         23.3390    38.0520    79.1780 ca         1 O1K       0.143900
     10 C14         21.7520    39.4290    80.0740 ca         1 O1K       0.237000
     11 N01         24.3540    44.5590    79.2250 nb         1 O1K      -0.171000
     12 N05         25.4580    44.4990    81.3920 nb         1 O1K      -0.130000
     13 N09         24.9300    41.1130    80.4840 na         1 O1K      -0.103200
     14 N13         22.0400    38.2670    79.4590 nb         1 O1K      -0.152000
     15 N15         22.6260    40.3900    80.4350 nb         1 O1K      -0.186000
     16 Cl17        26.0190    38.6500    79.1090 cl         1 O1K      -0.124000
     17 H1          23.8580    42.7240    78.3330 h4         1 O1K       0.030100
     18 H2          24.9510    46.2250    80.3370 h5         1 O1K       0.053100
     19 H3          26.2580    42.3820    83.2590 ha         1 O1K       0.229000
     20 H4          25.5410    39.9510    82.2510 h4         1 O1K       0.234000
     21 H5          23.5860    37.1170    78.6790 h4         1 O1K       0.051100
     22 Cl1         20.0620    39.7270    80.4450 cl         1 O1K      -0.091000
@<TRIPOS>BOND
     1     1     2 ar  
     2     1    11 ar  
     3     1    17 1   
     4     2     3 ar  
     5     2    13 1   
     6     3     5 1   
     7     3    12 ar  
     8     4    11 ar  
     9     4    12 ar  
    10     4    18 1   
    11     5     6 2   
    12     5    19 1   
    13     6    13 1   
    14     6    20 1   
    15     7     8 ar  
    16     7    13 1   
    17     7    15 ar  
    18     8     9 ar  
    19     8    16 1   
    20     9    14 ar  
    21     9    21 1   
    22    10    14 ar  
    23    10    15 ar  
    24    10    22 1   
@<TRIPOS>SUBSTRUCTURE
     1 O1K         1 TEMP              0 ****  ****    0 ROOT
