@<TRIPOS>MOLECULE
O1M
   30    31     1     0     0
SMALL
bcc


@<TRIPOS>ATOM
      1 N1          -2.8070    -0.0710    -0.1460 n          1 O1M      -0.495800
      2 C4          -2.1040     0.9860    -0.8450 c6         1 O1M       0.102000
      3 C5           1.4100    -0.0270    -0.1740 ca         1 O1M       0.127600
      4 C6           2.1720    -1.1670    -0.4590 ca         1 O1M      -0.145000
      5 C7           3.5510    -1.1610    -0.3450 ca         1 O1M      -0.143500
      6 C8           4.1870     0.0030     0.0450 ca         1 O1M       0.107900
      7 C10          2.0890     1.1280     0.2240 ca         1 O1M      -0.145000
      8 N           -4.7770    -1.0130     0.6600 nt         1 O1M      -0.660000
      9 C           -4.1230     0.0840     0.1760 c          1 O1M       0.781100
     10 O           -4.6910     1.1690     0.0910 o          1 O1M      -0.640100
     11 C1          -2.0790    -1.3230    -0.1140 c6         1 O1M       0.102000
     12 C2          -0.6770    -1.1050     0.4270 c6         1 O1M       0.177300
     13 C3          -0.7070     1.1790    -0.2840 c6         1 O1M       0.177300
     14 C9           3.4750     1.1490     0.3250 ca         1 O1M      -0.143500
     15 F            5.5290     0.0150     0.1490 f          1 O1M      -0.145900
     16 N2           0.0190    -0.0730    -0.3270 nh         1 O1M      -0.643000
     17 H1          -2.0300     0.7400    -1.9110 h1         1 O1M       0.056200
     18 H2          -2.6600     1.9160    -0.7560 h1         1 O1M       0.056200
     19 H3           1.6840    -2.0720    -0.7970 ha         1 O1M       0.137000
     20 H4           4.1230    -2.0510    -0.5770 ha         1 O1M       0.148500
     21 H5           1.5480     2.0310     0.4700 ha         1 O1M       0.137000
     22 H6          -4.4900    -1.9440     0.4120 hn         1 O1M       0.301000
     23 H7          -5.7740    -0.9050     0.7430 hn         1 O1M       0.301000
     24 H8          -2.5650    -2.0450     0.5370 h1         1 O1M       0.056200
     25 H9          -2.0220    -1.7580    -1.1180 h1         1 O1M       0.056200
     26 H10         -0.7400    -0.8340     1.4920 h1         1 O1M       0.048200
     27 H11         -0.1380    -2.0490     0.3630 h1         1 O1M       0.048200
     28 H12         -0.1960     1.9190    -0.9020 h1         1 O1M       0.048200
     29 H13         -0.7750     1.5850     0.7370 h1         1 O1M       0.048200
     30 H14          3.9850     2.0510     0.6350 ha         1 O1M       0.148500
@<TRIPOS>BOND
     1     1     2 1   
     2     1     9 1   
     3     1    11 1   
     4     2    13 1   
     5     2    17 1   
     6     2    18 1   
     7     3     4 ar  
     8     3     7 ar  
     9     3    16 1   
    10     4     5 ar  
    11     4    19 1   
    12     5     6 ar  
    13     5    20 1   
    14     6    14 ar  
    15     6    15 1   
    16     7    14 ar  
    17     7    21 1   
    18     8     9 1   
    19     8    22 1   
    20     8    23 1   
    21     9    10 2   
    22    11    12 1   
    23    11    24 1   
    24    11    25 1   
    25    12    16 1   
    26    12    26 1   
    27    12    27 1   
    28    13    16 1   
    29    13    28 1   
    30    13    29 1   
    31    14    30 1   
@<TRIPOS>SUBSTRUCTURE
     1 O1M         1 TEMP              0 ****  ****    0 ROOT
