@<TRIPOS>MOLECULE
O1M
   30    31     1     0     0
SMALL
No Charge or Current Charge


@<TRIPOS>ATOM
      1 N1          -2.9080    -0.0220    -0.0520 n          1 O1M      -0.428800
      2 C4          -2.1320     1.1390    -0.5950 c6         1 O1M       0.102000
      3 C5           1.4670     0.0040    -0.0920 ca         1 O1M       0.266000
      4 C6           2.1040    -1.1470    -0.5970 ca         1 O1M      -0.127000
      5 C7           3.5070    -1.2070    -0.6970 ca         1 O1M      -0.125500
      6 C8           4.2820    -0.1120    -0.2910 ca         1 O1M       0.143000
      7 C10          2.2610     1.1000     0.3140 ca         1 O1M      -0.127000
      8 N           -4.9150    -1.2360     0.0380 nt         1 O1M      -0.593000
      9 C           -4.2940    -0.0830    -0.2730 c          1 O1M       0.647100
     10 O           -4.9350     0.8500    -0.7210 o          1 O1M      -0.640100
     11 C1          -2.1000    -1.2450     0.2750 c6         1 O1M       0.102000
     12 C2          -0.6620    -0.9830     0.8050 c6         1 O1M       0.177300
     13 C3          -0.6940     1.3200    -0.0340 c6         1 O1M       0.177300
     14 C9           3.6640     1.0420     0.2150 ca         1 O1M      -0.125500
     15 F            5.6280    -0.1670    -0.3860 f          1 O1M      -0.181000
     16 N2           0.0540     0.0370    -0.0020 nh         1 O1M      -0.781400
     17 H1          -2.0610     1.0160    -1.6840 h1         1 O1M       0.056200
     18 H2          -2.6880     2.0700    -0.4160 h1         1 O1M       0.056200
     19 H3           1.5070    -1.9950    -0.9220 ha         1 O1M       0.119000
     20 H4           3.9900    -2.0980    -1.0910 ha         1 O1M       0.130500
     21 H5           1.7980     1.9950     0.7190 ha         1 O1M       0.119000
     22 H6          -4.3910    -2.0100     0.4120 hn         1 O1M       0.301000
     23 H7          -5.9110    -1.3100    -0.1070 hn         1 O1M       0.301000
     24 H8          -2.6230    -1.8500     1.0290 h1         1 O1M       0.056200
     25 H9          -2.0250    -1.8560    -0.6360 h1         1 O1M       0.056200
     26 H10         -0.7300    -0.6420     1.8480 h1         1 O1M       0.048200
     27 H11         -0.1140    -1.9360     0.8150 h1         1 O1M       0.048200
     28 H12         -0.1720     2.0590    -0.6590 h1         1 O1M       0.048200
     29 H13         -0.7600     1.7370     0.9820 h1         1 O1M       0.048200
     30 H14          4.2710     1.8870     0.5320 ha         1 O1M       0.130500
@<TRIPOS>BOND
     1     1     2 1   
     2     1     9 1   
     3     1    11 1   
     4     2    13 1   
     5     2    17 1   
     6     2    18 1   
     7     3     4 ar  
     8     3     7 ar  
     9     3    16 1   
    10     4     5 ar  
    11     4    19 1   
    12     5     6 ar  
    13     5    20 1   
    14     6    14 ar  
    15     6    15 1   
    16     7    14 ar  
    17     7    21 1   
    18     8     9 1   
    19     8    22 1   
    20     8    23 1   
    21     9    10 2   
    22    11    12 1   
    23    11    24 1   
    24    11    25 1   
    25    12    16 1   
    26    12    26 1   
    27    12    27 1   
    28    13    16 1   
    29    13    28 1   
    30    13    29 1   
    31    14    30 1   
@<TRIPOS>SUBSTRUCTURE
     1 O1M         1 TEMP              0 ****  ****    0 ROOT
