@<TRIPOS>MOLECULE
O1O
   53    55     1     0     0
SMALL
No Charge or Current Charge


@<TRIPOS>ATOM
      1 C13          5.0450    -6.7510    83.6430 c6         1 O1O      -0.063400
      2 C15          3.5290    -4.9380    84.5600 c          1 O1O       0.598300
      3 C20         -2.9850    -5.2430    84.4110 cc         1 O1O      -0.337200
      4 C21         -3.8420    -4.8690    83.3960 cd         1 O1O       0.028400
      5 C1           2.0820    -2.2810    83.9890 ca         1 O1O      -0.062600
      6 C2           2.0260    -1.1710    84.8490 ca         1 O1O      -0.076000
      7 C3           0.8260    -0.7950    85.4620 ca         1 O1O      -0.027000
      8 C4          -0.3620    -1.5140    85.2190 ca         1 O1O      -0.226500
      9 C5          -0.3320    -2.6160    84.3200 ca         1 O1O       0.134600
     10 C6           0.8880    -2.9940    83.6910 ca         1 O1O      -0.016300
     11 C7           0.8940    -4.1450    82.6710 c3         1 O1O      -0.051800
     12 C8           3.4340    -2.6480    83.4220 c          1 O1O       0.624900
     13 C9           3.9050    -4.0610    83.4200 ce         1 O1O      -0.486400
     14 C11          4.6450    -4.5540    82.4030 c2         1 O1O       0.286900
     15 C12          5.1070    -6.0000    82.2940 c6         1 O1O      -0.074200
     16 C14          3.7120    -6.4440    84.3560 c6         1 O1O      -0.178400
     17 C19         -1.7820    -4.5120    84.7840 c          1 O1O       0.580200
     18 C23         -2.3440    -2.9560    82.9770 c          1 O1O       0.639000
     19 C30         -1.7560    -1.9180    87.6440 c3         1 O1O      -0.338100
     20 C31         -5.0830    -5.7140    83.0620 c3         1 O1O       0.344200
     21 F32         -5.1650    -6.0110    81.7440 f          1 O1O      -0.097333
     22 F33         -5.0970    -6.9010    83.7130 f          1 O1O      -0.097333
     23 F34         -6.2280    -5.0810    83.4040 f          1 O1O      -0.097333
     24 N18         -1.5190    -3.3710    84.0310 n          1 O1O      -0.313600
     25 N22         -3.5250    -3.6910    82.6970 n          1 O1O      -0.287000
     26 O10          4.0890    -1.8070    82.8160 o          1 O1O      -0.592100
     27 O16          5.0350    -3.8090    81.3650 oh         1 O1O      -0.538100
     28 O17          3.1080    -4.4950    85.6160 o          1 O1O      -0.525100
     29 O25         -1.0540    -4.8840    85.6900 o          1 O1O      -0.504000
     30 O28         -1.6870     0.4280    86.5040 o          1 O1O      -0.535000
     31 O29         -3.0630    -1.4350    85.4340 o          1 O1O      -0.535000
     32 S27         -1.8490    -0.9810    86.1220 sy         1 O1O       1.083500
     33 H1           5.1580    -7.8320    83.4820 hc         1 O1O       0.058200
     34 H2           5.8830    -6.4370    84.2810 hc         1 O1O       0.058200
     35 H3          -3.1540    -6.1290    85.0130 ha         1 O1O       0.239000
     36 H4          -5.4610    -3.3410    81.8420 h1         1 O1O       0.069033
     37 H5          -4.2730    -2.1020    81.4530 h1         1 O1O       0.069033
     38 H6          -4.1630    -3.6980    80.6660 h1         1 O1O       0.069033
     39 H7           2.9320    -0.6100    85.0690 ha         1 O1O       0.129000
     40 H8           0.8340     0.0540    86.1430 ha         1 O1O       0.145000
     41 H9           0.9950    -5.1150    83.1710 hc         1 O1O       0.051700
     42 H10         -0.0260    -4.1780    82.0760 hc         1 O1O       0.051700
     43 H11          1.7020    -4.0510    81.9380 hc         1 O1O       0.051700
     44 H12          4.4720    -6.5130    81.5590 hc         1 O1O       0.081700
     45 H13          6.1310    -6.0410    81.8970 hc         1 O1O       0.081700
     46 H14          3.5980    -6.9780    85.3090 hc         1 O1O       0.073700
     47 H15          2.9150    -6.7680    83.6740 hc         1 O1O       0.073700
     48 H16         -2.6090    -1.6360    88.2690 h1         1 O1O       0.108033
     49 H17         -1.7940    -2.9830    87.3970 h1         1 O1O       0.108033
     50 H18         -0.8120    -1.6700    88.1410 h1         1 O1O       0.108033
     51 H19          4.7960    -2.8820    81.6220 ho         1 O1O       0.548000
     52 O24         -2.0370    -1.9750    82.3100 o          1 O1O      -0.520000
     53 C26         -4.4040    -3.1810    81.6030 c3         1 O1O       0.086300
@<TRIPOS>BOND
     1     1    15 1   
     2     1    16 1   
     3     1    33 1   
     4     1    34 1   
     5     2    13 1   
     6     2    16 1   
     7     2    28 2   
     8     3     4 2   
     9     3    17 1   
    10     3    35 1   
    11     4    20 1   
    12     4    25 1   
    13     5     6 ar  
    14     5    10 ar  
    15     5    12 1   
    16     6     7 ar  
    17     6    39 1   
    18     7     8 ar  
    19     7    40 1   
    20     8     9 ar  
    21     8    32 1   
    22     9    10 ar  
    23     9    24 1   
    24    10    11 1   
    25    11    41 1   
    26    11    42 1   
    27    11    43 1   
    28    12    13 1   
    29    12    26 2   
    30    13    14 2   
    31    14    15 1   
    32    14    27 1   
    33    15    44 1   
    34    15    45 1   
    35    16    46 1   
    36    16    47 1   
    37    17    24 1   
    38    17    29 2   
    39    18    24 1   
    40    18    25 1   
    41    18    52 2   
    42    19    32 1   
    43    19    48 1   
    44    19    49 1   
    45    19    50 1   
    46    20    21 1   
    47    20    22 1   
    48    20    23 1   
    49    25    53 1   
    50    27    51 1   
    51    30    32 2   
    52    31    32 2   
    53    36    53 1   
    54    37    53 1   
    55    38    53 1   
@<TRIPOS>SUBSTRUCTURE
     1 O1O         1 TEMP              0 ****  ****    0 ROOT
