@<TRIPOS>MOLECULE
O1O
   53    55     1     0     0
SMALL
abcg2


@<TRIPOS>ATOM
      1 C13          5.6020    -6.4340    83.9770 c6         1 O1O      -0.063400
      2 C15          3.4740    -5.1310    84.3330 c          1 O1O       0.598300
      3 C20         -3.2370    -5.1760    84.4470 cc         1 O1O      -0.337200
      4 C21         -4.0740    -4.6090    83.5590 cd         1 O1O       0.028400
      5 C1           1.9470    -2.5610    83.7740 ca         1 O1O      -0.062600
      6 C2           1.9800    -1.4870    84.6560 ca         1 O1O      -0.076000
      7 C3           0.8300    -1.0810    85.3120 ca         1 O1O      -0.027000
      8 C4          -0.3650    -1.7440    85.0650 ca         1 O1O      -0.226500
      9 C5          -0.4010    -2.8020    84.1540 ca         1 O1O       0.134600
     10 C6           0.7490    -3.2270    83.4900 ca         1 O1O      -0.016300
     11 C7           0.6730    -4.3710    82.5190 c3         1 O1O      -0.051800
     12 C8           3.2280    -2.9130    83.0810 c          1 O1O       0.624900
     13 C9           3.9220    -4.1600    83.3210 ce         1 O1O      -0.486400
     14 C11          5.0530    -4.4440    82.5530 c2         1 O1O       0.286900
     15 C12          5.8170    -5.7190    82.6500 c6         1 O1O      -0.074200
     16 C14          4.1130    -6.5000    84.3030 c6         1 O1O      -0.178400
     17 C19         -1.9310    -4.6170    84.6800 c          1 O1O       0.580200
     18 C23         -2.4660    -2.9490    82.9230 c          1 O1O       0.639000
     19 C30         -1.7980    -2.2350    87.4290 c3         1 O1O      -0.338100
     20 C31         -5.4720    -5.1860    83.4010 c3         1 O1O       0.344200
     21 F32         -5.7500    -5.4950    82.1220 f          1 O1O      -0.097333
     22 F33         -5.6220    -6.3030    84.1210 f          1 O1O      -0.097333
     23 F34         -6.4080    -4.3120    83.8260 f          1 O1O      -0.097333
     24 N18         -1.6360    -3.4950    83.8990 n          1 O1O      -0.313600
     25 N22         -3.7290    -3.5150    82.8050 n          1 O1O      -0.287000
     26 O10          3.6670    -2.0670    82.2740 o          1 O1O      -0.592100
     27 O16          5.5130    -3.5990    81.6710 oh         1 O1O      -0.538100
     28 O17          2.6150    -4.8660    85.1650 o          1 O1O      -0.525100
     29 O25         -1.1270    -5.0360    85.5010 o          1 O1O      -0.504000
     30 O28         -1.5330     0.1690    86.4200 o          1 O1O      -0.535000
     31 O29         -3.0060    -1.4380    85.2350 o          1 O1O      -0.535000
     32 S27         -1.7950    -1.1920    85.9940 sy         1 O1O       1.083500
     33 H1           6.0240    -7.4380    83.9270 hc         1 O1O       0.058200
     34 H2           6.1280    -5.8990    84.7710 hc         1 O1O       0.058200
     35 H3          -3.5250    -6.0340    85.0310 ha         1 O1O       0.239000
     36 H4          -5.6440    -2.9570    82.1250 h1         1 O1O       0.069033
     37 H5          -4.3280    -1.8590    81.7040 h1         1 O1O       0.069033
     38 H6          -4.4950    -3.3980    80.8380 h1         1 O1O       0.069033
     39 H7           2.9150    -0.9760    84.8460 ha         1 O1O       0.129000
     40 H8           0.8550    -0.2570    86.0090 ha         1 O1O       0.145000
     41 H9           0.5300    -5.3140    83.0520 hc         1 O1O       0.051700
     42 H10         -0.1650    -4.2480    81.8340 hc         1 O1O       0.051700
     43 H11          1.5790    -4.4570    81.9240 hc         1 O1O       0.051700
     44 H12          5.4730    -6.3490    81.8190 hc         1 O1O       0.081700
     45 H13          6.8690    -5.5020    82.4610 hc         1 O1O       0.081700
     46 H14          3.9250    -6.9820    85.2610 hc         1 O1O       0.073700
     47 H15          3.5920    -7.0790    83.5300 hc         1 O1O       0.073700
     48 H16         -2.6620    -1.9300    88.0210 h1         1 O1O       0.108033
     49 H17         -1.8860    -3.2720    87.1180 h1         1 O1O       0.108033
     50 H18         -0.8730    -2.0670    87.9760 h1         1 O1O       0.108033
     51 H19          4.8990    -2.7880    81.6970 ho         1 O1O       0.548000
     52 O24         -2.0970    -2.0290    82.2210 o          1 O1O      -0.520000
     53 C26         -4.6130    -2.9000    81.7990 c3         1 O1O       0.086300
@<TRIPOS>BOND
     1     1    15 1   
     2     1    16 1   
     3     1    33 1   
     4     1    34 1   
     5     2    13 1   
     6     2    16 1   
     7     2    28 2   
     8     3     4 2   
     9     3    17 1   
    10     3    35 1   
    11     4    20 1   
    12     4    25 1   
    13     5     6 ar  
    14     5    10 ar  
    15     5    12 1   
    16     6     7 ar  
    17     6    39 1   
    18     7     8 ar  
    19     7    40 1   
    20     8     9 ar  
    21     8    32 1   
    22     9    10 ar  
    23     9    24 1   
    24    10    11 1   
    25    11    41 1   
    26    11    42 1   
    27    11    43 1   
    28    12    13 1   
    29    12    26 2   
    30    13    14 2   
    31    14    15 1   
    32    14    27 1   
    33    15    44 1   
    34    15    45 1   
    35    16    46 1   
    36    16    47 1   
    37    17    24 1   
    38    17    29 2   
    39    18    24 1   
    40    18    25 1   
    41    18    52 2   
    42    19    32 1   
    43    19    48 1   
    44    19    49 1   
    45    19    50 1   
    46    20    21 1   
    47    20    22 1   
    48    20    23 1   
    49    25    53 1   
    50    27    51 1   
    51    30    32 2   
    52    31    32 2   
    53    36    53 1   
    54    37    53 1   
    55    38    53 1   
@<TRIPOS>SUBSTRUCTURE
     1 O1O         1 TEMP              0 ****  ****    0 ROOT
