@<TRIPOS>MOLECULE
O1Q
   47    52     1     0     0
SMALL
No Charge or Current Charge


@<TRIPOS>ATOM
      1 N1          25.7870    32.8710     0.4470 nc         1 O1Q      -0.199400
      2 N3          25.2660    30.7880     0.8450 na         1 O1Q       0.159800
      3 C4          29.9340    30.2460    -5.4680 ca         1 O1Q      -0.095000
      4 C5          28.8110    29.7620    -4.7680 ca         1 O1Q       0.005800
      5 C6          28.4150    28.8330    -2.5160 cc         1 O1Q      -0.103000
      6 C7          27.7810    29.9270    -1.7770 ca         1 O1Q       0.019000
      7 C8          26.8030    29.6430    -0.7950 ca         1 O1Q      -0.091000
      8 C10         26.5420    32.0230    -0.3650 ca         1 O1Q       0.014400
      9 C13         22.6560    28.3960     1.8800 ca         1 O1Q      -0.035200
     10 C15         23.3870    27.4830     2.5680 ca         1 O1Q      -0.230900
     11 C17         25.3960    28.7290     2.1460 ca         1 O1Q      -0.156000
     12 C20         28.6950    27.6020    -1.9950 cd         1 O1Q      -0.208000
     13 C21         29.3700    26.8740    -3.0070 cd         1 O1Q       0.238900
     14 C22         27.5360    30.2930    -5.0550 ca         1 O1Q      -0.110000
     15 C18         27.5140    32.3360    -1.3280 ca         1 O1Q       0.187000
     16 N2          24.9950    32.0960     1.1940 nd         1 O1Q      -0.146400
     17 C11         24.6370    29.6870     1.4210 ca         1 O1Q       0.041800
     18 C16         24.7720    27.6060     2.7320 ca         1 O1Q      -0.018000
     19 C14         22.4480    26.4880     3.0210 cc         1 O1Q       0.357800
     20 N5          21.1940    26.7750     2.6290 nd         1 O1Q      -0.504100
     21 N4          21.3440    27.9740     1.9150 na         1 O1Q      -0.055400
     22 C12         23.2380    29.5220     1.2850 ca         1 O1Q      -0.108000
     23 C9          26.2210    30.7250    -0.1210 ca         1 O1Q      -0.062200
     24 C19         28.1350    31.2800    -2.0280 ca         1 O1Q      -0.114000
     25 N6          29.5320    27.5620    -4.1280 nc         1 O1Q      -0.498800
     26 N           28.9620    28.7710    -3.7930 na         1 O1Q       0.231000
     27 C3          29.7850    31.2550    -6.4340 ca         1 O1Q      -0.101000
     28 C2          28.5130    31.7860    -6.7060 ca         1 O1Q      -0.105000
     29 C1          27.3830    31.3090    -6.0170 ca         1 O1Q      -0.062300
     30 C           26.0040    31.8810    -6.3080 c3         1 O1Q      -0.049800
     31 H5          30.9230    29.8440    -5.2570 ha         1 O1Q       0.136000
     32 H6          26.4990    28.6220    -0.5800 ha         1 O1Q       0.141000
     33 H11         26.4710    28.8590     2.2540 ha         1 O1Q       0.130000
     34 H13         28.4660    27.2450    -0.9970 ha         1 O1Q       0.147000
     35 H14         29.7440    25.8590    -2.9530 h4         1 O1Q       0.041100
     36 H15         26.6630    29.9190    -4.5240 ha         1 O1Q       0.126000
     37 H10         25.3460    26.8660     3.2880 ha         1 O1Q       0.128000
     38 H9          22.5970    25.5870     3.6020 h4         1 O1Q       0.054800
     39 H8          20.5470    28.4450     1.4880 hn         1 O1Q       0.382000
     40 H7          22.6360    30.2430     0.7350 ha         1 O1Q       0.145000
     41 H12         28.8980    31.5210    -2.7610 ha         1 O1Q       0.143000
     42 H4          30.6550    31.6270    -6.9700 ha         1 O1Q       0.120000
     43 H3          28.4060    32.5690    -7.4550 ha         1 O1Q       0.117000
     44 H2          25.4680    31.2570    -7.0330 hc         1 O1Q       0.046700
     45 H           25.3960    31.9350    -5.3970 hc         1 O1Q       0.046700
     46 H1          26.0680    32.8950    -6.7210 hc         1 O1Q       0.046700
     47 Cl          27.9590    34.0070    -1.6650 cl         1 O1Q      -0.152000
@<TRIPOS>BOND
     1     1     8 1   
     2     1    16 2   
     3     2    16 1   
     4     2    17 1   
     5     2    23 1   
     6     3     4 ar  
     7     3    27 ar  
     8     3    31 1   
     9     4    14 ar  
    10     4    26 1   
    11     5     6 1   
    12     5    12 2   
    13     5    26 1   
    14     6     7 ar  
    15     6    24 ar  
    16     7    23 ar  
    17     7    32 1   
    18     8    15 ar  
    19     8    23 ar  
    20     9    10 ar  
    21     9    21 1   
    22     9    22 ar  
    23    10    18 ar  
    24    10    19 1   
    25    11    17 ar  
    26    11    18 ar  
    27    11    33 1   
    28    12    13 1   
    29    12    34 1   
    30    13    25 2   
    31    13    35 1   
    32    14    29 ar  
    33    14    36 1   
    34    15    24 ar  
    35    15    47 1   
    36    17    22 ar  
    37    18    37 1   
    38    19    20 2   
    39    19    38 1   
    40    20    21 1   
    41    21    39 1   
    42    22    40 1   
    43    24    41 1   
    44    25    26 1   
    45    27    28 ar  
    46    27    42 1   
    47    28    29 ar  
    48    28    43 1   
    49    29    30 1   
    50    30    44 1   
    51    30    45 1   
    52    30    46 1   
@<TRIPOS>SUBSTRUCTURE
     1 O1Q         1 TEMP              0 ****  ****    0 ROOT
