@<TRIPOS>MOLECULE
O1Q
   47    52     1     0     0
SMALL
abcg2


@<TRIPOS>ATOM
      1 N1          25.8190    32.6940     0.3220 nc         1 O1Q      -0.199400
      2 N3          25.3080    30.6490     0.6700 na         1 O1Q       0.159800
      3 C4          29.8390    30.3660    -5.4770 ca         1 O1Q      -0.095000
      4 C5          28.8190    29.8250    -4.7060 ca         1 O1Q       0.005800
      5 C6          28.7460    28.8300    -2.4170 cc         1 O1Q      -0.103000
      6 C7          27.9990    29.8930    -1.7400 ca         1 O1Q       0.019000
      7 C8          26.9830    29.5390    -0.8740 ca         1 O1Q      -0.091000
      8 C10         26.6540    31.9240    -0.4270 ca         1 O1Q       0.014400
      9 C13         22.5080    28.6340     1.8670 ca         1 O1Q      -0.035200
     10 C15         23.1730    27.5130     2.3960 ca         1 O1Q      -0.230900
     11 C17         25.2580    28.4940     1.7820 ca         1 O1Q      -0.156000
     12 C20         29.2520    27.6610    -1.8940 cd         1 O1Q      -0.208000
     13 C21         29.9410    27.0630    -2.9590 cd         1 O1Q       0.238900
     14 C22         27.5010    30.2200    -4.8840 ca         1 O1Q      -0.110000
     15 C18         27.6890    32.2600    -1.3050 ca         1 O1Q       0.187000
     16 N2          25.0340    31.9220     0.9630 nd         1 O1Q      -0.146400
     17 C11         24.5600    29.5970     1.2470 ca         1 O1Q       0.041800
     18 C16         24.5700    27.4470     2.3480 ca         1 O1Q      -0.018000
     19 C14         22.1250    26.6870     2.8840 cc         1 O1Q       0.357800
     20 N5          20.9600    27.2450     2.6720 nd         1 O1Q      -0.504100
     21 N4          21.1900    28.4090     2.0630 na         1 O1Q      -0.055400
     22 C12         23.1880    29.6970     1.2700 ca         1 O1Q      -0.108000
     23 C9          26.3370    30.5840    -0.2160 ca         1 O1Q      -0.062200
     24 C19         28.3580    31.2500    -1.9450 ca         1 O1Q      -0.114000
     25 N6          29.8630    27.7940    -4.0530 nc         1 O1Q      -0.498800
     26 N           29.1370    28.8620    -3.7190 na         1 O1Q       0.231000
     27 C3          29.5190    31.3220    -6.4270 ca         1 O1Q      -0.101000
     28 C2          28.2040    31.7380    -6.5940 ca         1 O1Q      -0.105000
     29 C1          27.1790    31.1910    -5.8280 ca         1 O1Q      -0.062300
     30 C           25.7520    31.6030    -6.0370 c3         1 O1Q      -0.049800
     31 H5          30.8630    30.0520    -5.3270 ha         1 O1Q       0.136000
     32 H6          26.6990    28.5060    -0.7340 ha         1 O1Q       0.141000
     33 H11         26.3390    28.4850     1.7660 ha         1 O1Q       0.130000
     34 H13         29.1650    27.3160    -0.8770 ha         1 O1Q       0.147000
     35 H14         30.4870    26.1330    -2.9650 h4         1 O1Q       0.041100
     36 H15         26.7170    29.7660    -4.2900 ha         1 O1Q       0.126000
     37 H10         25.1040    26.6020     2.7610 ha         1 O1Q       0.128000
     38 H9          22.1980    25.7270     3.3720 h4         1 O1Q       0.054800
     39 H8          20.4160    29.0030     1.8110 hn         1 O1Q       0.382000
     40 H7          22.6720    30.5460     0.8430 ha         1 O1Q       0.145000
     41 H12         29.1790    31.4910    -2.6060 ha         1 O1Q       0.143000
     42 H4          30.3020    31.7570    -7.0340 ha         1 O1Q       0.120000
     43 H3          27.9750    32.4960    -7.3320 ha         1 O1Q       0.117000
     44 H2          25.2480    30.9230    -6.7260 hc         1 O1Q       0.046700
     45 H           25.1890    31.5930    -5.1030 hc         1 O1Q       0.046700
     46 H1          25.6850    32.6040    -6.4620 hc         1 O1Q       0.046700
     47 CL          28.0970    33.9100    -1.5520 cl         1 O1Q      -0.152000
@<TRIPOS>BOND
     1     1     8 1   
     2     1    16 2   
     3     2    16 1   
     4     2    17 1   
     5     2    23 1   
     6     3     4 ar  
     7     3    27 ar  
     8     3    31 1   
     9     4    14 ar  
    10     4    26 1   
    11     5     6 1   
    12     5    12 2   
    13     5    26 1   
    14     6     7 ar  
    15     6    24 ar  
    16     7    23 ar  
    17     7    32 1   
    18     8    15 ar  
    19     8    23 ar  
    20     9    10 ar  
    21     9    21 1   
    22     9    22 ar  
    23    10    18 ar  
    24    10    19 1   
    25    11    17 ar  
    26    11    18 ar  
    27    11    33 1   
    28    12    13 1   
    29    12    34 1   
    30    13    25 2   
    31    13    35 1   
    32    14    29 ar  
    33    14    36 1   
    34    15    24 ar  
    35    15    47 1   
    36    17    22 ar  
    37    18    37 1   
    38    19    20 2   
    39    19    38 1   
    40    20    21 1   
    41    21    39 1   
    42    22    40 1   
    43    24    41 1   
    44    25    26 1   
    45    27    28 ar  
    46    27    42 1   
    47    28    29 ar  
    48    28    43 1   
    49    29    30 1   
    50    30    44 1   
    51    30    45 1   
    52    30    46 1   
@<TRIPOS>SUBSTRUCTURE
     1 O1Q         1 TEMP              0 ****  ****    0 ROOT
