@<TRIPOS>MOLECULE
O1R
   24    26     1     0     0
SMALL
No Charge or Current Charge


@<TRIPOS>ATOM
      1 C02         21.8140    38.3080    82.2780 ca         1 O1R       0.484000
      2 C03         22.4090    37.0970    81.9100 ca         1 O1R      -0.167000
      3 C04         23.8050    37.0310    81.8210 ca         1 O1R      -0.014000
      4 C05         24.5490    38.1910    82.1060 ca         1 O1R      -0.082000
      5 C06         25.9830    38.1270    82.0280 cg         1 O1R       0.318000
      6 C08         23.8730    39.3880    82.4700 ca         1 O1R       0.513500
      7 C11         24.8190    41.0290    84.0500 cc         1 O1R      -0.127100
      8 C12         25.5930    42.1720    83.8490 cd         1 O1R      -0.328800
      9 C13         25.8590    42.3690    82.4440 ca         1 O1R       0.109800
     10 C15         26.5850    43.2190    80.4790 ca         1 O1R       0.099900
     11 C17         25.3220    41.2730    80.3960 ca         1 O1R       0.135900
     12 C18         25.2450    41.3400    81.7950 ca         1 O1R      -0.137200
     13 N07         27.1450    38.0620    81.9570 n1         1 O1R      -0.418000
     14 N09         22.5180    39.4240    82.5520 nb         1 O1R      -0.693000
     15 N10         24.6350    40.5320    82.7420 na         1 O1R      -0.100200
     16 N14         26.5470    43.3450    81.8310 nb         1 O1R      -0.132000
     17 N16         26.0080    42.2350    79.7300 nb         1 O1R      -0.173000
     18 H2          21.7930    36.2270    81.7000 ha         1 O1R       0.153000
     19 H3          24.2960    36.1010    81.5400 ha         1 O1R       0.143000
     20 H4          24.4110    40.5610    84.9430 h4         1 O1R       0.227000
     21 H5          25.9390    42.8310    84.6430 ha         1 O1R       0.229000
     22 H6          27.1320    43.9860    79.9350 h5         1 O1R       0.051100
     23 H7          24.8540    40.4800    79.8150 h4         1 O1R       0.039100
     24 Cl1         20.0670    38.4380    82.4050 cl         1 O1R      -0.129000
@<TRIPOS>BOND
     1     1     2 ar  
     2     1    14 ar  
     3     1    24 1   
     4     2     3 ar  
     5     2    18 1   
     6     3     4 ar  
     7     3    19 1   
     8     4     5 1   
     9     4     6 ar  
    10     5    13 3   
    11     6    14 ar  
    12     6    15 1   
    13     7     8 2   
    14     7    15 1   
    15     7    20 1   
    16     8     9 1   
    17     8    21 1   
    18     9    12 ar  
    19     9    16 ar  
    20    10    16 ar  
    21    10    17 ar  
    22    10    22 1   
    23    11    12 ar  
    24    11    17 ar  
    25    11    23 1   
    26    12    15 1   
@<TRIPOS>SUBSTRUCTURE
     1 O1R         1 TEMP              0 ****  ****    0 ROOT
