@<TRIPOS>MOLECULE
O1R
   24    26     1     0     0
SMALL
abcg2


@<TRIPOS>ATOM
      1 C02         22.1810    38.4730    81.4250 ca         1 O1R       0.484000
      2 C03         22.4270    37.1630    81.8080 ca         1 O1R      -0.167000
      3 C04         23.6270    36.9140    82.4390 ca         1 O1R      -0.014000
      4 C05         24.5150    37.9650    82.6740 ca         1 O1R      -0.082000
      5 C06         25.8050    37.6860    83.2050 cg         1 O1R       0.318000
      6 C08         24.1190    39.2540    82.2990 ca         1 O1R       0.513500
      7 C11         25.6060    40.6310    83.7180 cc         1 O1R      -0.127100
      8 C12         26.2460    41.8240    83.6360 cd         1 O1R      -0.328800
      9 C13         25.9420    42.3560    82.3480 ca         1 O1R       0.109800
     10 C15         25.8690    43.6760    80.5450 ca         1 O1R       0.099900
     11 C17         24.6760    41.7320    80.4130 ca         1 O1R       0.135900
     12 C18         25.0980    41.4380    81.6980 ca         1 O1R      -0.137200
     13 N07         26.8500    37.4320    83.6160 n1         1 O1R      -0.418000
     14 N09         22.9810    39.4820    81.6740 nb         1 O1R      -0.693000
     15 N10         24.9130    40.3690    82.5520 na         1 O1R      -0.100200
     16 N14         26.3310    43.4910    81.7660 nb         1 O1R      -0.132000
     17 N16         25.0730    42.8620    79.8470 nb         1 O1R      -0.173000
     18 H2          21.7230    36.3700    81.6040 ha         1 O1R       0.153000
     19 H3          23.8930    35.9070    82.7310 ha         1 O1R       0.143000
     20 H4          25.5530    39.9510    84.5540 h4         1 O1R       0.227000
     21 H5          26.8450    42.2780    84.4080 ha         1 O1R       0.229000
     22 H6          26.1690    44.5910    80.0450 h5         1 O1R       0.051100
     23 H7          24.0270    41.0810    79.8400 h4         1 O1R       0.039100
     24 CL1         20.7320    38.8390    80.5740 cl         1 O1R      -0.129000
@<TRIPOS>BOND
     1     1     2 ar  
     2     1    14 ar  
     3     1    24 1   
     4     2     3 ar  
     5     2    18 1   
     6     3     4 ar  
     7     3    19 1   
     8     4     5 1   
     9     4     6 ar  
    10     5    13 3   
    11     6    14 ar  
    12     6    15 1   
    13     7     8 2   
    14     7    15 1   
    15     7    20 1   
    16     8     9 1   
    17     8    21 1   
    18     9    12 ar  
    19     9    16 ar  
    20    10    16 ar  
    21    10    17 ar  
    22    10    22 1   
    23    11    12 ar  
    24    11    17 ar  
    25    11    23 1   
    26    12    15 1   
@<TRIPOS>SUBSTRUCTURE
     1 O1R         1 TEMP              0 ****  ****    0 ROOT
