@<TRIPOS>MOLECULE
O1S
   39    42     1     0     0
SMALL
No Charge or Current Charge


@<TRIPOS>ATOM
      1 N3           5.9590    -1.2730    -0.8700 na         1 O1S       0.000800
      2 C6           4.1260    -2.0200    -1.6200 cc         1 O1S       0.269900
      3 C7           3.8040    -0.8820    -0.8580 cc         1 O1S      -0.154000
      4 C8           2.4800    -0.3470    -0.6430 cc         1 O1S      -0.068000
      5 C10          0.1640    -0.2280    -0.8430 cd         1 O1S       0.191400
      6 C15         -5.7280    -1.1720    -0.6130 c5         1 O1S       0.157800
      7 C17         -5.4390    -1.3870     1.8110 c5         1 O1S      -0.077400
      8 C21         -0.6880     1.7300     0.4250 c          1 O1S       0.611600
      9 C2           4.9860    -0.3930    -0.3700 cd         1 O1S      -0.114300
     10 N5           5.4150    -2.2930    -1.6540 nd         1 O1S      -0.515800
     11 C9           1.3520    -0.9210    -1.1850 cd         1 O1S      -0.133000
     12 N11         -1.1170    -0.5840    -1.2510 nd         1 O1S      -0.575100
     13 C12         -2.0970     0.2130    -0.8040 cc         1 O1S       0.488900
     14 N14         -4.3410    -0.8760    -0.2030 n3         1 O1S      -0.693600
     15 C16         -6.2450    -1.9750     0.6090 c5         1 O1S      -0.077400
     16 C18         -4.5110    -0.3280     1.1600 c5         1 O1S       0.157800
     17 N19         -1.8940     1.3190    -0.0130 ns         1 O1S      -0.423400
     18 O22         -0.5370     2.7120     1.1320 o          1 O1S      -0.547000
     19 C23          0.3680     0.8640    -0.0500 cc         1 O1S      -0.377600
     20 S24          2.0700     1.0850     0.3150 ss         1 O1S       0.271000
     21 H1           6.9630    -1.2120    -0.7040 hn         1 O1S       0.372000
     22 H2           3.4480    -2.6680    -2.1590 h4         1 O1S       0.043100
     23 H3          -4.0550     0.9320    -1.2950 h1         1 O1S       0.046200
     24 H4          -3.5730    -0.5230    -2.1490 h1         1 O1S       0.046200
     25 H6          -5.7780    -1.7570    -1.5420 h1         1 O1S       0.038450
     26 H7          -6.0880    -0.9410     2.5730 hc         1 O1S       0.048950
     27 H8          -4.8530    -2.1700     2.3060 hc         1 O1S       0.048950
     28 H12          1.3510    -1.8070    -1.8090 ha         1 O1S       0.151000
     29 H14         -7.3280    -1.8680     0.7360 hc         1 O1S       0.048950
     30 H15         -6.0380    -3.0450     0.4890 hc         1 O1S       0.048950
     31 H16         -4.9950     0.6590     1.1340 h1         1 O1S       0.038450
     32 H17         -3.5600    -0.2310     1.7010 h1         1 O1S       0.038450
     33 H18         -2.6860     1.8720     0.2770 hn         1 O1S       0.324500
     34 C13         -3.5590    -0.0390    -1.1630 c3         1 O1S       0.137500
     35 C1           5.3090     0.7930     0.5050 c3         1 O1S      -0.041800
     36 H5          -6.3080    -0.2490    -0.7560 h1         1 O1S       0.038450
     37 H9           4.9910     1.7310     0.0340 hc         1 O1S       0.059033
     38 H10          4.8150     0.7130     1.4800 hc         1 O1S       0.059033
     39 H11          6.3870     0.8710     0.6920 hc         1 O1S       0.059033
@<TRIPOS>BOND
     1     1     9 1   
     2     1    10 1   
     3     1    21 1   
     4     2     3 1   
     5     2    10 2   
     6     2    22 1   
     7     3     4 1   
     8     3     9 2   
     9     4    11 2   
    10     4    20 1   
    11     5    11 1   
    12     5    12 1   
    13     5    19 2   
    14     6    14 1   
    15     6    15 1   
    16     6    25 1   
    17     6    36 1   
    18     7    15 1   
    19     7    16 1   
    20     7    26 1   
    21     7    27 1   
    22     8    17 1   
    23     8    18 2   
    24     8    19 1   
    25     9    35 1   
    26    11    28 1   
    27    12    13 2   
    28    13    17 1   
    29    13    34 1   
    30    14    16 1   
    31    14    34 1   
    32    15    29 1   
    33    15    30 1   
    34    16    31 1   
    35    16    32 1   
    36    17    33 1   
    37    19    20 1   
    38    23    34 1   
    39    24    34 1   
    40    35    37 1   
    41    35    38 1   
    42    35    39 1   
@<TRIPOS>SUBSTRUCTURE
     1 O1S         1 TEMP              0 ****  ****    0 ROOT
