@<TRIPOS>MOLECULE
O1S
   39    42     1     0     0
SMALL
bcc


@<TRIPOS>ATOM
      1 N3           5.5430    -1.5790    -0.3660 na         1 O1S       0.000400
      2 C6           3.6280    -2.4240    -0.4110 cc         1 O1S       0.335200
      3 C7           3.4440    -1.0220    -0.3910 cc         1 O1S      -0.219300
      4 C8           2.1800    -0.3260    -0.3980 cc         1 O1S       0.076900
      5 C10         -0.1050     0.0740    -0.4350 cd         1 O1S       0.191400
      6 C15         -5.5560    -0.9410    -0.6250 c5         1 O1S       0.157800
      7 C17         -4.8790    -2.4210     1.1730 c5         1 O1S      -0.077400
      8 C21         -0.4840     2.4930    -0.3250 c          1 O1S       0.754100
      9 C2           4.7360    -0.5090    -0.3610 cd         1 O1S      -0.063600
     10 N5           4.9010    -2.7440    -0.3960 nd         1 O1S      -0.515800
     11 C9           0.9330    -0.8900    -0.4600 cd         1 O1S      -0.151000
     12 N11         -1.4370    -0.2140    -0.4800 nd         1 O1S      -0.575100
     13 C12         -2.2380     0.7960    -0.4440 cc         1 O1S       0.488900
     14 N14         -4.1650    -0.7130    -0.2680 n3         1 O1S      -0.693600
     15 C16         -5.8640    -2.3050    -0.0100 c5         1 O1S      -0.077400
     16 C18         -4.0690    -1.1240     1.1240 c5         1 O1S       0.157800
     17 N19         -1.8110     2.0860    -0.3650 ns         1 O1S      -0.490400
     18 O22         -0.1700     3.6710    -0.2630 o          1 O1S      -0.622500
     19 C23          0.3850     1.3650    -0.3600 cc         1 O1S      -0.232700
     20 S24          2.0990     1.4080    -0.3150 ss         1 O1S      -0.018800
     21 H1           6.5520    -1.5650    -0.3510 hn         1 O1S       0.321700
     22 H2           2.8720    -3.1950    -0.4350 h4         1 O1S       0.043100
     23 H3          -4.2080     1.3650     0.1400 h1         1 O1S       0.046200
     24 H4          -4.0240     0.9090    -1.5450 h1         1 O1S       0.046200
     25 H6          -5.6900    -0.9150    -1.7090 h1         1 O1S       0.038450
     26 H7          -5.3880    -2.5300     2.1310 hc         1 O1S       0.048950
     27 H8          -4.2300    -3.2880     1.0530 hc         1 O1S       0.048950
     28 H12          0.7540    -1.9540    -0.5170 ha         1 O1S       0.169000
     29 H14         -6.9050    -2.3740     0.3030 hc         1 O1S       0.048950
     30 H15         -5.6920    -3.1010    -0.7350 hc         1 O1S       0.048950
     31 H16         -4.5150    -0.3690     1.7920 h1         1 O1S       0.038450
     32 H17         -3.0300    -1.2580     1.4250 h1         1 O1S       0.038450
     33 H18         -2.5070     2.8220    -0.3350 hn         1 O1S       0.324500
     34 C13         -3.7300     0.6250    -0.5280 c3         1 O1S       0.137500
     35 C1           5.2590     0.8800    -0.3300 c3         1 O1S      -0.041800
     36 H5          -6.2170    -0.1720    -0.1920 h1         1 O1S       0.038450
     37 H9           4.9200     1.4500    -1.1960 hc         1 O1S       0.059033
     38 H10          4.9290     1.4080     0.5660 hc         1 O1S       0.059033
     39 H11          6.3480     0.8880    -0.3360 hc         1 O1S       0.059033
@<TRIPOS>BOND
     1     1     9 1   
     2     1    10 1   
     3     1    21 1   
     4     2     3 1   
     5     2    10 2   
     6     2    22 1   
     7     3     4 1   
     8     3     9 2   
     9     4    11 2   
    10     4    20 1   
    11     5    11 1   
    12     5    12 1   
    13     5    19 2   
    14     6    14 1   
    15     6    15 1   
    16     6    25 1   
    17     6    36 1   
    18     7    15 1   
    19     7    16 1   
    20     7    26 1   
    21     7    27 1   
    22     8    17 1   
    23     8    18 2   
    24     8    19 1   
    25     9    35 1   
    26    11    28 1   
    27    12    13 2   
    28    13    17 1   
    29    13    34 1   
    30    14    16 1   
    31    14    34 1   
    32    15    29 1   
    33    15    30 1   
    34    16    31 1   
    35    16    32 1   
    36    17    33 1   
    37    19    20 1   
    38    23    34 1   
    39    24    34 1   
    40    35    37 1   
    41    35    38 1   
    42    35    39 1   
@<TRIPOS>SUBSTRUCTURE
     1 O1S         1 TEMP              0 ****  ****    0 ROOT
