@<TRIPOS>MOLECULE
O1T
   58    61     1     0     0
SMALL
No Charge or Current Charge


@<TRIPOS>ATOM
      1 N1         -13.3220    19.8700   -34.7620 nc         1 O1T      -0.497100
      2 N3         -12.3700    23.5740   -32.7180 nu         1 O1T      -0.966200
      3 C4         -17.4070    16.8100   -30.4260 c3         1 O1T      -0.758400
      4 C5         -15.5600    19.5310   -35.8870 c5         1 O1T       0.314300
      5 C6         -12.7790    20.8710   -34.0620 cd         1 O1T       0.379800
      6 C7         -13.6870    21.9730   -33.9510 ca         1 O1T      -0.336900
      7 C8         -14.8220    21.6170   -34.6060 ca         1 O1T       0.438500
      8 C10        -14.6180    24.0910   -33.4670 ca         1 O1T      -0.312000
      9 C13        -11.5600    25.3180   -34.2380 ca         1 O1T      -0.123300
     10 C15        -12.0800    26.8490   -36.0710 ca         1 O1T      -0.158500
     11 C17        -10.5980    24.9590   -36.4580 ca         1 O1T      -0.158500
     12 C18        -10.7450    24.5680   -35.1150 ca         1 O1T      -0.072500
     13 C16        -11.2650    26.0980   -36.9310 ca         1 O1T       0.125000
     14 C14        -12.2280    26.4600   -34.7280 ca         1 O1T      -0.072500
     15 C12        -11.7430    24.8970   -32.7790 c3         1 O1T       0.293800
     16 C19        -10.4140    24.8730   -32.0020 c3         1 O1T      -0.105100
     17 C11        -13.5400    23.2160   -33.3660 ca         1 O1T       0.452000
     18 C9         -15.7560    23.6640   -34.1590 ca         1 O1T       0.524000
     19 Cl         -17.1380    24.7330   -34.3300 cl         1 O1T      -0.223000
     20 N2         -15.8720    22.4480   -34.7340 nb         1 O1T      -0.686000
     21 N          -14.6130    20.3320   -35.0880 na         1 O1T      -0.037100
     22 C1         -15.0120    18.2590   -36.6140 c5         1 O1T       0.138300
     23 O1         -15.8540    17.7880   -37.6730 oh         1 O1T      -0.734000
     24 O8         -16.6150    19.0010   -35.0530 os         1 O1T      -0.396000
     25 C2         -16.1740    17.7330   -34.4960 c5         1 O1T       0.086300
     26 C          -15.0610    17.1900   -35.4700 c5         1 O1T       0.100300
     27 O          -15.3840    15.8950   -36.0300 oh         1 O1T      -0.766000
     28 C3         -15.6880    17.8890   -33.0190 c3         1 O1T       0.239600
     29 O2         -16.6260    18.6490   -32.2340 os         1 O1T      -0.541400
     30 P          -17.9760    17.9900   -31.6420 p5         1 O1T       1.425400
     31 O7         -18.7120    17.1950   -32.6720 o          1 O1T      -0.878000
     32 O6         -18.9060    18.9930   -31.0390 o          1 O1T      -0.878000
     33 P1         -16.3040    17.6570   -29.3180 p5         1 O1T       1.347500
     34 O5         -14.9360    17.6110   -29.9000 o          1 O1T      -0.924833
     35 O4         -16.7240    19.0460   -28.9970 o          1 O1T      -0.924833
     36 O3         -16.3080    16.8260   -28.0820 o          1 O1T      -0.924833
     37 H1         -11.7330    22.8000   -32.5420 hn         1 O1T       0.499000
     38 H2         -18.2700    16.4250   -29.8770 hc         1 O1T       0.019200
     39 H3         -16.8980    15.9720   -30.9100 hc         1 O1T       0.019200
     40 H4         -15.9780    20.2340   -36.6170 h2         1 O1T       0.095700
     41 H5         -11.7690    20.7620   -33.6890 h4         1 O1T       0.039800
     42 H6         -14.5850    25.0810   -33.0280 ha         1 O1T       0.121000
     43 H7         -12.5960    27.7300   -36.4450 ha         1 O1T       0.114500
     44 H8          -9.9710    24.3780   -37.1300 ha         1 O1T       0.114500
     45 H9         -10.2310    23.6780   -34.7590 ha         1 O1T       0.117000
     46 H10        -12.8660    27.0470   -34.0700 ha         1 O1T       0.117000
     47 H11        -12.3980    25.6290   -32.2840 h1         1 O1T       0.070700
     48 H12         -9.9370    25.8590   -32.0400 hc         1 O1T       0.044700
     49 H13        -10.5890    24.6230   -30.9490 hc         1 O1T       0.044700
     50 H14         -9.7160    24.1390   -32.4200 hc         1 O1T       0.044700
     51 H15        -13.9890    18.4110   -36.9840 h1         1 O1T       0.043700
     52 H16        -15.9610    16.8370   -37.3890 ho         1 O1T       0.524000
     53 H17        -17.0330    17.0520   -34.5000 h1         1 O1T       0.100700
     54 H18        -14.0870    17.1570   -34.9590 h1         1 O1T       0.075700
     55 H19        -15.1220    15.2060   -35.3680 ho         1 O1T       0.539000
     56 H20        -15.5410    16.8880   -32.5960 h1         1 O1T       0.036200
     57 H21        -14.7120    18.3880   -33.0080 h1         1 O1T       0.036200
     58 F          -11.1250    26.4720   -38.2210 f          1 O1T      -0.204000
@<TRIPOS>BOND
     1     1     5 2   
     2     1    21 1   
     3     2    15 1   
     4     2    17 1   
     5     2    37 1   
     6     3    30 1   
     7     3    33 1   
     8     3    38 1   
     9     3    39 1   
    10     4    21 1   
    11     4    22 1   
    12     4    24 1   
    13     4    40 1   
    14     5     6 1   
    15     5    41 1   
    16     6     7 ar  
    17     6    17 ar  
    18     7    20 ar  
    19     7    21 1   
    20     8    17 ar  
    21     8    18 ar  
    22     8    42 1   
    23     9    12 ar  
    24     9    14 ar  
    25     9    15 1   
    26    10    13 ar  
    27    10    14 ar  
    28    10    43 1   
    29    11    12 ar  
    30    11    13 ar  
    31    11    44 1   
    32    12    45 1   
    33    13    58 1   
    34    14    46 1   
    35    15    16 1   
    36    15    47 1   
    37    16    48 1   
    38    16    49 1   
    39    16    50 1   
    40    18    19 1   
    41    18    20 ar  
    42    22    23 1   
    43    22    26 1   
    44    22    51 1   
    45    23    52 1   
    46    24    25 1   
    47    25    26 1   
    48    25    28 1   
    49    25    53 1   
    50    26    27 1   
    51    26    54 1   
    52    27    55 1   
    53    28    29 1   
    54    28    56 1   
    55    28    57 1   
    56    29    30 1   
    57    30    31 1   
    58    30    32 1   
    59    33    34 1   
    60    33    35 1   
    61    33    36 1   
@<TRIPOS>SUBSTRUCTURE
     1 O1T         1 TEMP              0 ****  ****    0 ROOT
