@<TRIPOS>MOLECULE
O1T
   58    61     1     0     0
SMALL
bcc


@<TRIPOS>ATOM
      1 N1         -13.5660    19.4200   -34.8710 nc         1 O1T      -0.497100
      2 N3         -12.2010    23.4010   -33.6040 nu         1 O1T      -0.772600
      3 C4         -17.0910    16.7960   -29.9220 c3         1 O1T      -0.442800
      4 C5         -15.7410    19.1610   -35.9580 c5         1 O1T       0.261800
      5 C6         -12.8660    20.4020   -34.3680 cd         1 O1T       0.379800
      6 C7         -13.4990    21.6450   -34.6130 ca         1 O1T      -0.402200
      7 C8         -14.6560    21.3090   -35.3180 ca         1 O1T       0.503800
      8 C10        -14.2600    23.8930   -34.7660 ca         1 O1T      -0.395300
      9 C13        -11.5350    25.6970   -34.2300 ca         1 O1T      -0.123300
     10 C15        -11.5360    27.9240   -35.1800 ca         1 O1T      -0.176500
     11 C17        -10.1570    26.1960   -36.1530 ca         1 O1T      -0.176500
     12 C18        -10.6210    25.3000   -35.2000 ca         1 O1T      -0.090500
     13 C16        -10.6200    27.4970   -36.1200 ca         1 O1T       0.089900
     14 C14        -11.9880    27.0120   -34.2370 ca         1 O1T      -0.090500
     15 C12        -11.9780    24.7510   -33.1320 c3         1 O1T       0.293800
     16 C19        -10.9480    24.7130   -32.0100 c3         1 O1T      -0.105100
     17 C11        -13.2750    23.0090   -34.3040 ca         1 O1T       0.313600
     18 C9         -15.3570    23.3850   -35.4600 ca         1 O1T       0.589300
     19 CL         -16.5470    24.5330   -35.9960 cl         1 O1T      -0.223000
     20 N2         -15.6050    22.1360   -35.7580 nb         1 O1T      -0.686000
     21 N          -14.6430    19.9620   -35.4650 na         1 O1T      -0.007800
     22 C1         -15.3020    17.7840   -36.4460 c5         1 O1T       0.115100
     23 O1         -16.2480    17.3800   -37.4010 oh         1 O1T      -0.611800
     24 O8         -16.6940    18.9340   -34.9620 os         1 O1T      -0.349600
     25 C2         -16.5260    17.6440   -34.3740 c5         1 O1T       0.063100
     26 C          -15.4070    16.9450   -35.1690 c5         1 O1T       0.077100
     27 O          -15.6770    15.6120   -35.5150 oh         1 O1T      -0.643800
     28 C3         -16.1690    17.7590   -32.9050 c3         1 O1T       0.216400
     29 O2         -17.1620    18.4110   -32.1610 os         1 O1T      -0.518200
     30 P          -18.1810    17.4990   -31.2040 p5         1 O1T       1.267600
     31 O7         -18.7210    16.3720   -32.0570 o          1 O1T      -0.878000
     32 O6         -19.1490    18.5090   -30.6420 o          1 O1T      -0.878000
     33 P1         -15.8160    17.8090   -28.9640 p5         1 O1T       1.189700
     34 O5         -14.7380    18.2060   -29.9830 o          1 O1T      -0.924833
     35 O4         -16.5690    19.0040   -28.3620 o          1 O1T      -0.924833
     36 O3         -15.3170    16.8030   -27.9130 o          1 O1T      -0.924833
     37 H1         -11.5520    22.6930   -33.3010 hn         1 O1T       0.443800
     38 H2         -17.7770    16.3450   -29.1940 hc         1 O1T       0.019200
     39 H3         -16.5610    15.9490   -30.3710 hc         1 O1T       0.019200
     40 H4         -16.2020    19.7410   -36.7600 h2         1 O1T       0.095700
     41 H5         -11.9400    20.2020   -33.8500 h4         1 O1T       0.039800
     42 H6         -14.1900    24.9560   -34.5960 ha         1 O1T       0.139000
     43 H7         -11.8940    28.9460   -35.1810 ha         1 O1T       0.132500
     44 H8          -9.4440    25.8850   -36.9060 ha         1 O1T       0.132500
     45 H9         -10.2620    24.2780   -35.2220 ha         1 O1T       0.135000
     46 H10        -12.7090    27.3350   -33.4940 ha         1 O1T       0.135000
     47 H11        -12.9170    25.1300   -32.7120 h1         1 O1T       0.070700
     48 H12        -10.7860    25.7150   -31.6170 hc         1 O1T       0.044700
     49 H13        -11.2890    24.0780   -31.1920 hc         1 O1T       0.044700
     50 H14         -9.9910    24.3330   -32.3720 hc         1 O1T       0.044700
     51 H15        -14.2870    17.7890   -36.8570 h1         1 O1T       0.043700
     52 H16        -16.3110    16.4180   -37.3670 ho         1 O1T       0.425000
     53 H17        -17.4680    17.0960   -34.4790 h1         1 O1T       0.100700
     54 H18        -14.4610    17.0200   -34.6190 h1         1 O1T       0.075700
     55 H19        -15.7410    15.0820   -34.7140 ho         1 O1T       0.440000
     56 H20        -15.9600    16.7460   -32.5370 h1         1 O1T       0.036200
     57 H21        -15.2330    18.3160   -32.8040 h1         1 O1T       0.036200
     58 F          -10.1650    28.3740   -37.0330 f          1 O1T      -0.168900
@<TRIPOS>BOND
     1     1     5 2   
     2     1    21 1   
     3     2    15 1   
     4     2    17 1   
     5     2    37 1   
     6     3    30 1   
     7     3    33 1   
     8     3    38 1   
     9     3    39 1   
    10     4    21 1   
    11     4    22 1   
    12     4    24 1   
    13     4    40 1   
    14     5     6 1   
    15     5    41 1   
    16     6     7 ar  
    17     6    17 ar  
    18     7    20 ar  
    19     7    21 1   
    20     8    17 ar  
    21     8    18 ar  
    22     8    42 1   
    23     9    12 ar  
    24     9    14 ar  
    25     9    15 1   
    26    10    13 ar  
    27    10    14 ar  
    28    10    43 1   
    29    11    12 ar  
    30    11    13 ar  
    31    11    44 1   
    32    12    45 1   
    33    13    58 1   
    34    14    46 1   
    35    15    16 1   
    36    15    47 1   
    37    16    48 1   
    38    16    49 1   
    39    16    50 1   
    40    18    19 1   
    41    18    20 ar  
    42    22    23 1   
    43    22    26 1   
    44    22    51 1   
    45    23    52 1   
    46    24    25 1   
    47    25    26 1   
    48    25    28 1   
    49    25    53 1   
    50    26    27 1   
    51    26    54 1   
    52    27    55 1   
    53    28    29 1   
    54    28    56 1   
    55    28    57 1   
    56    29    30 1   
    57    30    31 1   
    58    30    32 1   
    59    33    34 1   
    60    33    35 1   
    61    33    36 1   
@<TRIPOS>SUBSTRUCTURE
     1 O1T         1 TEMP              0 ****  ****    0 ROOT
