@<TRIPOS>MOLECULE
O1V
   43    47     1     0     0
SMALL
No Charge or Current Charge


@<TRIPOS>ATOM
      1 N3           6.4080     0.9040    -0.2510 na         1 O1V       0.000800
      2 C6           4.6370     1.6930    -1.0990 cc         1 O1V       0.268900
      3 C7           4.2330     0.6510    -0.2440 cc         1 O1V      -0.154000
      4 C8           2.8740     0.2220    -0.0070 cc         1 O1V      -0.071000
      5 C10          0.5580     0.2320    -0.2400 cd         1 O1V       0.195400
      6 C15         -0.4350    -1.5490     1.1740 c          1 O1V       0.609600
      7 C17          0.6810    -0.7950     0.6500 cc         1 O1V      -0.378600
      8 C21         -3.5230     1.7010    -0.8800 c6         1 O1V      -0.084400
      9 C22         -4.8730     2.0870    -0.2120 c6         1 O1V      -0.072700
     10 C24         -5.5690    -0.3670    -0.2740 c6         1 O1V       0.144800
     11 C2           5.3740     0.1360     0.3080 cd         1 O1V      -0.114300
     12 N5           5.9410     1.8800    -1.1330 nd         1 O1V      -0.515800
     13 C9           1.7920     0.8140    -0.6200 cd         1 O1V      -0.136000
     14 N11         -0.6920     0.6260    -0.7040 nd         1 O1V      -0.618100
     15 C12         -1.7320    -0.0550    -0.2020 cc         1 O1V       0.502900
     16 N13         -1.5990    -1.1000     0.6740 ns         1 O1V      -0.406400
     17 O16         -0.3600    -2.4740     1.9650 o          1 O1V      -0.547000
     18 S18          2.3600    -1.0890     1.0670 ss         1 O1V       0.273000
     19 C19         -3.1990     0.1870    -0.6020 c6         1 O1V       0.114200
     20 C23         -5.9630     1.0860    -0.6900 c6         1 O1V      -0.105400
     21 N25         -4.2190    -0.3820     0.3730 n3         1 O1V      -0.700600
     22 C27         -4.7010     1.9050     1.3200 c6         1 O1V      -0.105400
     23 H1           7.4030     0.7950    -0.0610 hn         1 O1V       0.372000
     24 H2           4.0090     2.3310    -1.7070 h4         1 O1V       0.042100
     25 H4          -2.7310     2.3540    -0.4900 hc         1 O1V       0.066200
     26 H5          -5.1510     3.1220    -0.4570 hc         1 O1V       0.062700
     27 H6          -6.3270    -0.7650     0.4170 h1         1 O1V       0.058200
     28 H7          -5.5810    -1.0170    -1.1620 h1         1 O1V       0.058200
     29 H8          -4.9840    -0.0020     2.3440 h1         1 O1V       0.058200
     30 H9          -3.2930     0.4490     2.1340 h1         1 O1V       0.058200
     31 H10          5.1070    -0.7850     2.2460 hc         1 O1V       0.059367
     32 H11          5.2370    -1.9390     0.9010 hc         1 O1V       0.059367
     33 H12          6.6770    -1.1130     1.5050 hc         1 O1V       0.059367
     34 H13          1.8570     1.6380    -1.3210 ha         1 O1V       0.148000
     35 H14         -2.4460    -1.5530     0.9870 hn         1 O1V       0.352500
     36 H15         -3.3280    -0.3370    -1.5610 h1         1 O1V       0.079700
     37 H16         -6.9380     1.3470    -0.2590 hc         1 O1V       0.049450
     38 H17         -6.0780     1.1450    -1.7810 hc         1 O1V       0.049450
     39 H19         -3.9500     2.6060     1.7090 hc         1 O1V       0.049450
     40 H20         -5.6410     2.1380     1.8380 hc         1 O1V       0.049450
     41 C1           5.6090    -0.9840     1.2920 c3         1 O1V      -0.040800
     42 H3          -3.5640     1.8810    -1.9630 hc         1 O1V       0.066200
     43 C26         -4.2710     0.4380     1.6310 c6         1 O1V       0.144800
@<TRIPOS>BOND
     1     1    11 1   
     2     1    12 1   
     3     1    23 1   
     4     2     3 1   
     5     2    12 2   
     6     2    24 1   
     7     3     4 1   
     8     3    11 2   
     9     4    13 2   
    10     4    18 1   
    11     5     7 2   
    12     5    13 1   
    13     5    14 1   
    14     6     7 1   
    15     6    16 1   
    16     6    17 2   
    17     7    18 1   
    18     8     9 1   
    19     8    19 1   
    20     8    25 1   
    21     8    42 1   
    22     9    20 1   
    23     9    22 1   
    24     9    26 1   
    25    10    20 1   
    26    10    21 1   
    27    10    27 1   
    28    10    28 1   
    29    11    41 1   
    30    13    34 1   
    31    14    15 2   
    32    15    16 1   
    33    15    19 1   
    34    16    35 1   
    35    19    21 1   
    36    19    36 1   
    37    20    37 1   
    38    20    38 1   
    39    21    43 1   
    40    22    39 1   
    41    22    40 1   
    42    22    43 1   
    43    29    43 1   
    44    30    43 1   
    45    31    41 1   
    46    32    41 1   
    47    33    41 1   
@<TRIPOS>SUBSTRUCTURE
     1 O1V         1 TEMP              0 ****  ****    0 ROOT
