@<TRIPOS>MOLECULE
O1V
   43    47     1     0     0
SMALL
abcg2


@<TRIPOS>ATOM
      1 N3           6.2840     0.9270    -0.1050 na         1 O1V       0.000800
      2 C6           4.5900     1.7560    -1.0140 cc         1 O1V       0.268900
      3 C7           4.1320     0.6680    -0.2370 cc         1 O1V      -0.154000
      4 C8           2.7610     0.2380    -0.0960 cc         1 O1V      -0.071000
      5 C10          0.4470     0.2010    -0.2510 cd         1 O1V       0.195400
      6 C15         -0.3870    -1.7990     0.9050 c          1 O1V       0.609600
      7 C17          0.6810    -0.9690     0.4490 cc         1 O1V      -0.378600
      8 C21         -3.4630     1.6830    -0.8840 c6         1 O1V      -0.084400
      9 C22         -4.8250     2.0570    -0.2920 c6         1 O1V      -0.072700
     10 C24         -5.4660    -0.3340    -0.0420 c6         1 O1V       0.144800
     11 C2           5.2860     0.1530     0.3440 cd         1 O1V      -0.114300
     12 N5           5.8920     1.8990    -0.9250 nd         1 O1V      -0.515800
     13 C9           1.6480     0.8860    -0.5620 cd         1 O1V      -0.136000
     14 N11         -0.8080     0.6270    -0.5770 nd         1 O1V      -0.618100
     15 C12         -1.7810    -0.1170    -0.1710 cc         1 O1V       0.502900
     16 N13         -1.6090    -1.2600     0.5400 ns         1 O1V      -0.406400
     17 O16         -0.2950    -2.8400     1.5360 o          1 O1V      -0.547000
     18 S18          2.3520    -1.2360     0.7260 ss         1 O1V       0.273000
     19 C19         -3.2090     0.2050    -0.5330 c6         1 O1V       0.114200
     20 C23         -5.8610     1.0070    -0.7040 c6         1 O1V      -0.105400
     21 N25         -4.1150    -0.2620     0.5140 n3         1 O1V      -0.700600
     22 C27         -4.7020     2.0420     1.2320 c6         1 O1V      -0.105400
     23 H1           7.2610     0.8340     0.1260 hn         1 O1V       0.372000
     24 H2           4.0070     2.4230    -1.6320 h4         1 O1V       0.042100
     25 H4          -2.6840     2.3300    -0.4740 hc         1 O1V       0.066200
     26 H5          -5.1250     3.0460    -0.6410 hc         1 O1V       0.062700
     27 H6          -6.1460    -0.5840     0.7750 h1         1 O1V       0.058200
     28 H7          -5.5120    -1.1590    -0.7550 h1         1 O1V       0.058200
     29 H8          -4.6610     0.2270     2.4620 h1         1 O1V       0.058200
     30 H9          -3.0750     0.7880     1.9870 h1         1 O1V       0.058200
     31 H10          4.8990    -0.9000     2.1630 hc         1 O1V       0.059367
     32 H11          5.2850    -1.9390     0.7940 hc         1 O1V       0.059367
     33 H12          6.5570    -1.0220     1.5920 hc         1 O1V       0.059367
     34 H13          1.6740     1.8240    -1.0990 ha         1 O1V       0.148000
     35 H14         -2.4600    -1.7180     0.8580 hn         1 O1V       0.352500
     36 H15         -3.4200    -0.4120    -1.4160 h1         1 O1V       0.079700
     37 H16         -6.8610     1.3140    -0.3880 hc         1 O1V       0.049450
     38 H17         -5.8870     0.9130    -1.7930 hc         1 O1V       0.049450
     39 H19         -4.0660     2.8600     1.5750 hc         1 O1V       0.049450
     40 H20         -5.6850     2.1930     1.6860 hc         1 O1V       0.049450
     41 C1           5.5170    -0.9850     1.2700 c3         1 O1V      -0.040800
     42 H3          -3.4540     1.8200    -1.9670 hc         1 O1V       0.066200
     43 C26         -4.1050     0.6760     1.6370 c6         1 O1V       0.144800
@<TRIPOS>BOND
     1     1    11 1   
     2     1    12 1   
     3     1    23 1   
     4     2     3 1   
     5     2    12 2   
     6     2    24 1   
     7     3     4 1   
     8     3    11 2   
     9     4    13 2   
    10     4    18 1   
    11     5     7 2   
    12     5    13 1   
    13     5    14 1   
    14     6     7 1   
    15     6    16 1   
    16     6    17 2   
    17     7    18 1   
    18     8     9 1   
    19     8    19 1   
    20     8    25 1   
    21     8    42 1   
    22     9    20 1   
    23     9    22 1   
    24     9    26 1   
    25    10    20 1   
    26    10    21 1   
    27    10    27 1   
    28    10    28 1   
    29    11    41 1   
    30    13    34 1   
    31    14    15 2   
    32    15    16 1   
    33    15    19 1   
    34    16    35 1   
    35    19    21 1   
    36    19    36 1   
    37    20    37 1   
    38    20    38 1   
    39    21    43 1   
    40    22    39 1   
    41    22    40 1   
    42    22    43 1   
    43    29    43 1   
    44    30    43 1   
    45    31    41 1   
    46    32    41 1   
    47    33    41 1   
@<TRIPOS>SUBSTRUCTURE
     1 O1V         1 TEMP              0 ****  ****    0 ROOT
