@<TRIPOS>MOLECULE
O1W
   68    72     1     0     0
SMALL
abcg2


@<TRIPOS>ATOM
      1 C6           5.9170     9.2960    20.6090 cc         1 O1W      -0.164000
      2 C8           6.2220    11.5260    21.4330 cc         1 O1W      -0.196000
      3 N12          6.9390    12.5890    21.1740 nd         1 O1W      -0.085000
      4 C17          3.1370     6.0760    22.3050 ca         1 O1W      -0.008200
      5 C21          2.3820     5.0840    22.9210 ca         1 O1W      -0.248000
      6 C22          3.8320     7.3600    25.0930 c3         1 O1W       0.143600
      7 C24          4.7340    11.2420    25.5540 c3         1 O1W      -0.114600
      8 C28          0.5280     0.6160    22.4600 c6         1 O1W       0.145600
      9 C1           2.2230     3.8930    22.2030 ca         1 O1W       0.615900
     10 C14          7.4790    11.0530    19.7450 cc         1 O1W       0.338800
     11 C16          3.1330     8.0110    23.9130 c3         1 O1W       0.076300
     12 C18          3.7380     5.8540    21.0600 ca         1 O1W      -0.030600
     13 C19          3.5440     4.6230    20.4510 ca         1 O1W       0.447900
     14 C2           4.9750     9.1260    21.5740 cd         1 O1W       0.359700
     15 C25          3.5780    13.3980    24.9360 c3         1 O1W      -0.114600
     16 C27          1.7470     1.4980    22.2360 c6         1 O1W       0.192500
     17 C3           4.3020     7.8180    21.6400 cd         1 O1W       0.372800
     18 C30         -0.3070     1.9690    24.1230 c6         1 O1W       0.146600
     19 C31          0.8310     2.9630    23.9810 c6         1 O1W       0.173800
     20 C33          5.9480     6.8490    25.9280 c3         1 O1W       0.144900
     21 C34          2.9980     0.9450    22.9160 c3         1 O1W      -0.113100
     22 C35          1.6250     8.1030    24.1060 c3         1 O1W      -0.101100
     23 C9           5.2240    11.2590    22.4320 cc         1 O1W       0.693900
     24 N10          4.6310    10.0980    22.4640 nd         1 O1W      -0.797000
     25 N11          4.9200    12.2270    23.3010 nu         1 O1W      -0.914100
     26 N13          7.7180    12.2850    20.1210 nd         1 O1W      -0.365700
     27 N20          2.8070     3.6860    21.0080 nb         1 O1W      -0.746000
     28 N26          1.4340     2.8600    22.6670 nh         1 O1W      -0.763300
     29 N4           4.4510     6.9530    20.6750 nc         1 O1W      -0.566100
     30 N5           3.4960     7.3480    22.6600 na         1 O1W      -0.147600
     31 N7           6.5240    10.5280    20.5590 na         1 O1W       0.046200
     32 O29          0.0820     0.6580    23.7960 os         1 O1W      -0.442000
     33 H36          6.2150     8.5460    19.8960 h4         1 O1W       0.182000
     34 H38          8.8210    10.9710    18.1240 hc         1 O1W       0.063367
     35 H39          8.6520     9.4400    18.9860 hc         1 O1W       0.063367
     36 H40          7.3730     9.9850    17.9010 hc         1 O1W       0.063367
     37 H43          1.9630     5.2160    23.9040 ha         1 O1W       0.123000
     38 H44          3.5330     7.9000    26.0040 h1         1 O1W       0.028200
     39 H45          3.5040     6.3180    25.2300 h1         1 O1W       0.028200
     40 H49          4.0500    11.0930    26.3900 hc         1 O1W       0.046700
     41 H47          5.0560    10.2610    25.2040 hc         1 O1W       0.046700
     42 H48          5.6080    11.7800    25.9240 hc         1 O1W       0.046700
     43 H54         -0.2780     0.9300    21.7810 h1         1 O1W       0.055200
     44 H55          0.7780    -0.4210    22.2280 h1         1 O1W       0.055200
     45 H41          3.5130     9.0220    23.8190 h1         1 O1W       0.119700
     46 H42          3.9980     4.3950    19.4910 h4         1 O1W       0.030100
     47 H46          3.1750    11.4740    24.0970 h1         1 O1W       0.070700
     48 H52          2.8810    13.2780    25.7640 hc         1 O1W       0.046700
     49 H50          4.4180    13.9970    25.2960 hc         1 O1W       0.046700
     50 H51          3.0720    13.9530    24.1460 hc         1 O1W       0.046700
     51 H53          1.9230     1.5240    21.1610 h1         1 O1W       0.092700
     52 H56         -1.1430     2.2880    23.4830 h1         1 O1W       0.051200
     53 H57         -0.6580     1.9660    25.1560 h1         1 O1W       0.051200
     54 H58          1.5680     2.8230    24.7840 h1         1 O1W       0.044200
     55 H59          0.3980     3.9550    24.1130 h1         1 O1W       0.044200
     56 H60          7.0060     6.9440    25.6890 h1         1 O1W       0.030367
     57 H61          5.7670     7.3460    26.8890 h1         1 O1W       0.030367
     58 H62          5.7160     5.7840    26.0530 h1         1 O1W       0.030367
     59 H64          3.8550     1.5950    22.7370 hc         1 O1W       0.042367
     60 H65          2.8720     0.8400    23.9940 hc         1 O1W       0.042367
     61 H63          3.2410    -0.0390    22.5140 hc         1 O1W       0.042367
     62 H67          1.4140     8.7730    24.9390 hc         1 O1W       0.047700
     63 H68          1.1490     8.5200    23.2200 hc         1 O1W       0.047700
     64 H66          1.1490     7.1490    24.3280 hc         1 O1W       0.047700
     65 H37          5.4880    13.0600    23.2750 hn         1 O1W       0.516000
     66 C15          8.1130    10.3190    18.6290 c3         1 O1W      -0.103400
     67 O32          5.2130     7.4300    24.8850 os         1 O1W      -0.442000
     68 C23          4.0440    12.0360    24.4480 c3         1 O1W       0.241500
@<TRIPOS>BOND
     1     1    14 2   
     2     1    31 1   
     3     1    33 1   
     4     2     3 2   
     5     2    23 1   
     6     2    31 1   
     7     3    26 1   
     8     4     5 ar  
     9     4    12 ar  
    10     4    30 1   
    11     5     9 ar  
    12     5    37 1   
    13     6    11 1   
    14     6    38 1   
    15     6    39 1   
    16     6    67 1   
    17     7    40 1   
    18     7    41 1   
    19     7    42 1   
    20     7    68 1   
    21     8    16 1   
    22     8    32 1   
    23     8    43 1   
    24     8    44 1   
    25     9    27 ar  
    26     9    28 1   
    27    10    26 2   
    28    10    31 1   
    29    10    66 1   
    30    11    22 1   
    31    11    30 1   
    32    11    45 1   
    33    12    13 ar  
    34    12    29 1   
    35    13    27 ar  
    36    13    46 1   
    37    14    17 1   
    38    14    24 1   
    39    15    48 1   
    40    15    49 1   
    41    15    50 1   
    42    15    68 1   
    43    16    21 1   
    44    16    28 1   
    45    16    51 1   
    46    17    29 2   
    47    17    30 1   
    48    18    19 1   
    49    18    32 1   
    50    18    52 1   
    51    18    53 1   
    52    19    28 1   
    53    19    54 1   
    54    19    55 1   
    55    20    56 1   
    56    20    57 1   
    57    20    58 1   
    58    20    67 1   
    59    21    59 1   
    60    21    60 1   
    61    21    61 1   
    62    22    62 1   
    63    22    63 1   
    64    22    64 1   
    65    23    24 2   
    66    23    25 1   
    67    25    65 1   
    68    25    68 1   
    69    34    66 1   
    70    35    66 1   
    71    36    66 1   
    72    47    68 1   
@<TRIPOS>SUBSTRUCTURE
     1 O1W         1 TEMP              0 ****  ****    0 ROOT
