@<TRIPOS>MOLECULE
O1W
   68    72     1     0     0
SMALL
No Charge or Current Charge


@<TRIPOS>ATOM
      1 C6           5.8760     9.4870    20.5460 cc         1 O1W      -0.164000
      2 C8           6.0810    11.7280    21.3600 cc         1 O1W      -0.196000
      3 N12          6.7260    12.8300    21.0090 nd         1 O1W      -0.085000
      4 C17          3.3250     6.0880    22.2950 ca         1 O1W      -0.008200
      5 C21          2.4480     5.1330    22.8280 ca         1 O1W      -0.248000
      6 C22          4.0510     6.7630    25.2060 c3         1 O1W       0.143600
      7 C24          4.7180    11.7710    25.6890 c3         1 O1W      -0.114600
      8 C28          0.6960     0.4540    22.5660 c6         1 O1W       0.145600
      9 C1           2.3070     3.9100    22.1370 ca         1 O1W       0.615900
     10 C14          7.2280    11.2680    19.5200 cc         1 O1W       0.338800
     11 C16          3.5400     7.7920    24.1620 c3         1 O1W       0.076300
     12 C18          3.9710     5.8400    21.1240 ca         1 O1W      -0.030600
     13 C19          3.7820     4.5950    20.4840 ca         1 O1W       0.447900
     14 C2           5.0250     9.2210    21.6410 cd         1 O1W       0.359700
     15 C25          3.3660    13.6860    24.6700 c3         1 O1W      -0.114600
     16 C27          1.9080     1.4410    22.5350 c6         1 O1W       0.192500
     17 C3           4.5000     7.8430    21.6950 cd         1 O1W       0.372800
     18 C30         -0.7500     2.0830    23.5710 c6         1 O1W       0.146600
     19 C31          0.3770     3.1570    23.5870 c6         1 O1W       0.173800
     20 C33          6.0140     5.4680    25.7710 c3         1 O1W       0.144900
     21 C34          2.9110     1.1600    23.6880 c3         1 O1W      -0.113100
     22 C35          2.1130     8.2940    24.4750 c3         1 O1W      -0.101100
     23 C9           5.2100    11.3890    22.4130 cc         1 O1W       0.693900
     24 N10          4.6660    10.2110    22.5940 nd         1 O1W      -0.797000
     25 N11          4.9170    12.3650    23.3110 nu         1 O1W      -0.914100
     26 N13          7.4490    12.5380    19.8500 nd         1 O1W      -0.365700
     27 N20          2.9630     3.6370    20.9890 nb         1 O1W      -0.746000
     28 N26          1.4640     2.8780    22.5910 nh         1 O1W      -0.763300
     29 N4           4.7300     6.9280    20.7170 nc         1 O1W      -0.566100
     30 N5           3.6720     7.3430    22.7440 na         1 O1W      -0.147600
     31 N7           6.3700    10.7840    20.4660 na         1 O1W       0.046200
     32 O29         -0.1970     0.7520    23.6640 os         1 O1W      -0.442000
     33 H36          6.1740     8.7800    19.7850 h4         1 O1W       0.182000
     34 H38          8.4560    11.1820    17.7530 hc         1 O1W       0.063367
     35 H39          8.4030     9.6730    18.6840 hc         1 O1W       0.063367
     36 H40          7.0110    10.1560    17.6920 hc         1 O1W       0.063367
     37 H43          1.9020     5.3180    23.7440 ha         1 O1W       0.123000
     38 H44          3.9760     7.2040    26.2090 h1         1 O1W       0.028200
     39 H45          3.4340     5.8580    25.1950 h1         1 O1W       0.028200
     40 H49          4.0280    11.7030    26.5380 hc         1 O1W       0.046700
     41 H47          5.1280    10.7710    25.5060 hc         1 O1W       0.046700
     42 H48          5.5430    12.4370    25.9670 hc         1 O1W       0.046700
     43 H54          0.1380     0.5260    21.6210 h1         1 O1W       0.055200
     44 H55          1.0550    -0.5800    22.6640 h1         1 O1W       0.055200
     45 H41          4.2040     8.6460    24.3140 h1         1 O1W       0.119700
     46 H42          4.2860     4.3650    19.5460 h4         1 O1W       0.030100
     47 H46          3.1610    11.6010    24.2090 h1         1 O1W       0.070700
     48 H52          2.6450    13.6510    25.4950 hc         1 O1W       0.046700
     49 H50          4.1370    14.4250    24.9210 hc         1 O1W       0.046700
     50 H51          2.8360    14.0270    23.7730 hc         1 O1W       0.046700
     51 H53          2.4370     1.2400    21.5910 h1         1 O1W       0.092700
     52 H56         -1.3310     2.1680    22.6410 h1         1 O1W       0.051200
     53 H57         -1.4350     2.2490    24.4140 h1         1 O1W       0.051200
     54 H58          0.8030     3.2090    24.6000 h1         1 O1W       0.044200
     55 H59         -0.0860     4.1330    23.3780 h1         1 O1W       0.044200
     56 H60          7.0560     5.2820    25.4820 h1         1 O1W       0.030367
     57 H61          6.0030     5.8120    26.8130 h1         1 O1W       0.030367
     58 H62          5.4690     4.5170    25.7120 h1         1 O1W       0.030367
     59 H64          3.7810     1.8240    23.6260 hc         1 O1W       0.042367
     60 H65          2.4480     1.3030    24.6710 hc         1 O1W       0.042367
     61 H63          3.2800     0.1290    23.6420 hc         1 O1W       0.042367
     62 H67          2.0620     8.7020    25.4910 hc         1 O1W       0.047700
     63 H68          1.8280     9.0900    23.7770 hc         1 O1W       0.047700
     64 H66          1.3770     7.4870    24.3920 hc         1 O1W       0.047700
     65 H37          5.3590    13.2540    23.0940 hn         1 O1W       0.516000
     66 C15          7.8060    10.5280    18.3470 c3         1 O1W      -0.103400
     67 O32          5.4230     6.4480    24.9030 os         1 O1W      -0.442000
     68 C23          3.9840    12.2950    24.4400 c3         1 O1W       0.241500
@<TRIPOS>BOND
     1     1    14 2   
     2     1    31 1   
     3     1    33 1   
     4     2     3 2   
     5     2    23 1   
     6     2    31 1   
     7     3    26 1   
     8     4     5 ar  
     9     4    12 ar  
    10     4    30 1   
    11     5     9 ar  
    12     5    37 1   
    13     6    11 1   
    14     6    38 1   
    15     6    39 1   
    16     6    67 1   
    17     7    40 1   
    18     7    41 1   
    19     7    42 1   
    20     7    68 1   
    21     8    16 1   
    22     8    32 1   
    23     8    43 1   
    24     8    44 1   
    25     9    27 ar  
    26     9    28 1   
    27    10    26 2   
    28    10    31 1   
    29    10    66 1   
    30    11    22 1   
    31    11    30 1   
    32    11    45 1   
    33    12    13 ar  
    34    12    29 1   
    35    13    27 ar  
    36    13    46 1   
    37    14    17 1   
    38    14    24 1   
    39    15    48 1   
    40    15    49 1   
    41    15    50 1   
    42    15    68 1   
    43    16    21 1   
    44    16    28 1   
    45    16    51 1   
    46    17    29 2   
    47    17    30 1   
    48    18    19 1   
    49    18    32 1   
    50    18    52 1   
    51    18    53 1   
    52    19    28 1   
    53    19    54 1   
    54    19    55 1   
    55    20    56 1   
    56    20    57 1   
    57    20    58 1   
    58    20    67 1   
    59    21    59 1   
    60    21    60 1   
    61    21    61 1   
    62    22    62 1   
    63    22    63 1   
    64    22    64 1   
    65    23    24 2   
    66    23    25 1   
    67    25    65 1   
    68    25    68 1   
    69    34    66 1   
    70    35    66 1   
    71    36    66 1   
    72    47    68 1   
@<TRIPOS>SUBSTRUCTURE
     1 O1W         1 TEMP              0 ****  ****    0 ROOT
