@<TRIPOS>MOLECULE
O1X
   28    28     1     0     0
SMALL
abcg2


@<TRIPOS>ATOM
      1 N1           6.9200     0.7950    17.8070 nb         1 O1X      -0.652000
      2 C4           7.3800    -0.0880    19.9810 ca         1 O1X      -0.103000
      3 C5           7.7110     0.1510    18.6520 ca         1 O1X       0.353900
      4 C6           5.7440     1.2120    18.2610 ca         1 O1X       0.334900
      5 C7           5.3180     1.0080    19.5630 ca         1 O1X      -0.154000
      6 C8           6.1460     0.3500    20.4660 ca         1 O1X      -0.057300
      7 O1          10.0630     0.5860    20.5390 o          1 O1X      -0.547100
      8 C3           9.5300    -0.3480    21.0980 c          1 O1X       0.567100
      9 C1          10.2240    -1.1370    22.2150 c3         1 O1X       0.109300
     10 O           11.6050    -0.8200    22.2380 os         1 O1X      -0.468000
     11 C2          12.3900    -1.4070    21.3130 c3         1 O1X       0.393300
     12 F1          12.8030    -2.6290    21.7500 f          1 O1X      -0.119500
     13 F           13.5020    -0.6540    21.2090 f          1 O1X      -0.119500
     14 C            9.6610    -0.7480    23.5730 c3         1 O1X      -0.090100
     15 N            8.2710    -0.7720    20.8310 ns         1 O1X      -0.164000
     16 C9           5.7370     0.1250    21.8870 c3         1 O1X      -0.052800
     17 H1           8.6580    -0.2030    18.2600 h4         1 O1X       0.032100
     18 H2           5.1060     1.7320    17.5560 h4         1 O1X       0.023100
     19 H3           4.3480     1.3720    19.8770 ha         1 O1X       0.124000
     20 H4          10.0720    -2.2110    22.0550 h1         1 O1X       0.057700
     21 H5          11.9380    -1.5370    20.3260 h3         1 O1X       0.058700
     22 H6          10.1740    -1.2970    24.3610 hc         1 O1X       0.057367
     23 H7           9.7820     0.3210    23.7520 hc         1 O1X       0.057367
     24 H8           8.6010    -0.9860    23.6370 hc         1 O1X       0.057367
     25 H9           7.8950    -1.5430    21.3660 hn         1 O1X       0.155000
     26 H10          5.5960    -0.9370    22.0960 hc         1 O1X       0.048033
     27 H11          6.4980     0.4890    22.5790 hc         1 O1X       0.048033
     28 H12          4.8010     0.6340    22.1080 hc         1 O1X       0.048033
@<TRIPOS>BOND
     1     1     3 ar  
     2     1     4 ar  
     3     2     3 ar  
     4     2     6 ar  
     5     2    15 1   
     6     3    17 1   
     7     4     5 ar  
     8     4    18 1   
     9     5     6 ar  
    10     5    19 1   
    11     6    16 1   
    12     7     8 2   
    13     8     9 1   
    14     8    15 1   
    15     9    10 1   
    16     9    14 1   
    17     9    20 1   
    18    10    11 1   
    19    11    12 1   
    20    11    13 1   
    21    11    21 1   
    22    14    22 1   
    23    14    23 1   
    24    14    24 1   
    25    15    25 1   
    26    16    26 1   
    27    16    27 1   
    28    16    28 1   
@<TRIPOS>SUBSTRUCTURE
     1 O1X         1 TEMP              0 ****  ****    0 ROOT
