@<TRIPOS>MOLECULE
O1X
   28    28     1     0     0
SMALL
No Charge or Current Charge


@<TRIPOS>ATOM
      1 N1           6.9350     1.7110    18.1780 nb         1 O1X      -0.652000
      2 C4           7.4310     0.3680    20.1570 ca         1 O1X      -0.103000
      3 C5           7.8110     1.2150    19.0840 ca         1 O1X       0.353900
      4 C6           5.6330     1.3760    18.3110 ca         1 O1X       0.334900
      5 C7           5.1610     0.5500    19.3420 ca         1 O1X      -0.154000
      6 C8           6.0640     0.0320    20.2880 ca         1 O1X      -0.057300
      7 O1          10.4490     0.3870    20.2950 o          1 O1X      -0.547100
      8 C3           9.7490    -0.1040    21.1750 c          1 O1X       0.567100
      9 C1          10.3420    -0.8200    22.4290 c3         1 O1X       0.109300
     10 O           11.7140    -1.2600    22.2450 os         1 O1X      -0.468000
     11 C2          11.9230    -2.2730    21.2410 c3         1 O1X       0.393300
     12 F1          11.3030    -3.4260    21.5830 f          1 O1X      -0.119500
     13 F           13.2390    -2.5630    21.1420 f          1 O1X      -0.119500
     14 C           10.3590     0.1230    23.6500 c3         1 O1X      -0.090100
     15 N            8.3600    -0.1460    21.1120 ns         1 O1X      -0.164000
     16 C9           5.5600    -0.8680    21.4120 c3         1 O1X      -0.052800
     17 H1           8.8410     1.5280    18.9360 h4         1 O1X       0.032100
     18 H2           4.9480     1.7860    17.5700 h4         1 O1X       0.023100
     19 H3           4.1010     0.3190    19.3960 ha         1 O1X       0.124000
     20 H4           9.6950    -1.6760    22.6640 h1         1 O1X       0.057700
     21 H5          11.5590    -1.9470    20.2620 h3         1 O1X       0.058700
     22 H6          10.7630    -0.3940    24.5290 hc         1 O1X       0.057367
     23 H7          10.9800     1.0060    23.4520 hc         1 O1X       0.057367
     24 H8           9.3450     0.4640    23.8930 hc         1 O1X       0.057367
     25 H9           7.9240    -0.6230    21.8910 hn         1 O1X       0.155000
     26 H10          6.0460    -1.8500    21.3800 hc         1 O1X       0.048033
     27 H11          5.7600    -0.4220    22.3940 hc         1 O1X       0.048033
     28 H12          4.4790    -1.0350    21.3440 hc         1 O1X       0.048033
@<TRIPOS>BOND
     1     1     3 ar  
     2     1     4 ar  
     3     2     3 ar  
     4     2     6 ar  
     5     2    15 1   
     6     3    17 1   
     7     4     5 ar  
     8     4    18 1   
     9     5     6 ar  
    10     5    19 1   
    11     6    16 1   
    12     7     8 2   
    13     8     9 1   
    14     8    15 1   
    15     9    10 1   
    16     9    14 1   
    17     9    20 1   
    18    10    11 1   
    19    11    12 1   
    20    11    13 1   
    21    11    21 1   
    22    14    22 1   
    23    14    23 1   
    24    14    24 1   
    25    15    25 1   
    26    16    26 1   
    27    16    27 1   
    28    16    28 1   
@<TRIPOS>SUBSTRUCTURE
     1 O1X         1 TEMP              0 ****  ****    0 ROOT
