@<TRIPOS>MOLECULE
O1Z
   46    49     1     0     0
SMALL
No Charge or Current Charge


@<TRIPOS>ATOM
      1 C1          -4.9700     0.4020    -0.6100 ca         1 O1Z      -0.025000
      2 S1           0.2140     0.4300     0.0100 ss         1 O1Z      -0.104400
      3 C2          -4.7120    -0.8360    -1.2260 ca         1 O1Z      -0.110000
      4 N2           2.1700    -1.1580     0.7820 nc         1 O1Z      -0.826000
      5 C3          -3.5700    -1.5750    -0.8740 ca         1 O1Z      -0.068000
      6 N3           2.9160     0.9280     0.1270 nu         1 O1Z      -0.910100
      7 O3          -1.5680    -3.0930     0.6970 o          1 O1Z      -0.605100
      8 C4          -2.9380     0.1530     0.7180 ca         1 O1Z      -0.070000
      9 N4           1.2140    -3.0430     1.3190 nv         1 O1Z      -1.050900
     10 C5          -4.0810     0.8970     0.3680 ca         1 O1Z      -0.045000
     11 C6          -6.1130     1.1460    -0.9600 ca         1 O1Z      -0.101000
     12 C7          -6.3690     2.3790    -0.3360 ca         1 O1Z      -0.104000
     13 C8          -5.4850     2.8710     0.6400 ca         1 O1Z      -0.112000
     14 C9          -4.3430     2.1320     0.9920 ca         1 O1Z      -0.094000
     15 C10         -2.6660    -1.0810     0.0890 ca         1 O1Z      -0.139600
     16 C11         -1.4550    -1.8950     0.4640 c          1 O1Z       0.646300
     17 C12         -0.1440    -1.2160     0.5240 cd         1 O1Z      -0.473600
     18 C13          1.0140    -1.8210     0.8860 cc         1 O1Z       0.700900
     19 C14          1.9060     0.0420     0.3210 cd         1 O1Z       0.781300
     20 C15          4.3470     0.5910     0.1850 c6         1 O1Z       0.232500
     21 C16          5.1480     1.8480     0.6110 c6         1 O1Z      -0.090400
     22 C17          6.6730     1.5680     0.6140 c6         1 O1Z      -0.071900
     23 C18          7.1490     1.0510    -0.7660 c6         1 O1Z      -0.078400
     24 C19          6.3460    -0.1980    -1.2060 c6         1 O1Z      -0.071900
     25 C20          4.8220     0.0860    -1.2030 c6         1 O1Z      -0.090400
     26 H2          -5.3950    -1.2280    -1.9760 ha         1 O1Z       0.114000
     27 H3          -3.3820    -2.5330    -1.3560 ha         1 O1Z       0.126000
     28 HN3          2.6210     1.8050    -0.2920 hn         1 O1Z       0.502000
     29 H4          -2.2660     0.5300     1.4870 ha         1 O1Z       0.122000
     30 HN4          2.1550    -3.3760     1.1680 hn         1 O1Z       0.515500
     31 HN4A         0.4580    -3.6900     1.1240 hn         1 O1Z       0.515500
     32 H6          -6.8030     0.7700    -1.7120 ha         1 O1Z       0.113000
     33 H7          -7.2530     2.9530    -0.6070 ha         1 O1Z       0.112000
     34 H8          -5.6850     3.8260     1.1220 ha         1 O1Z       0.112000
     35 H9          -3.6630     2.5200     1.7480 ha         1 O1Z       0.113000
     36 H15          4.5400    -0.1980     0.9300 h1         1 O1Z       0.086700
     37 H16          4.9330     2.6820    -0.0720 hc         1 O1Z       0.047450
     38 H16A         4.8310     2.1710     1.6120 hc         1 O1Z       0.047450
     39 H17          7.2200     2.4830     0.8790 hc         1 O1Z       0.044700
     40 H17A         6.9110     0.8260     1.3900 hc         1 O1Z       0.044700
     41 H18          7.0380     1.8460    -1.5170 hc         1 O1Z       0.041700
     42 H18A         8.2210     0.8100    -0.7250 hc         1 O1Z       0.041700
     43 H19          6.6650    -0.5130    -2.2090 hc         1 O1Z       0.044700
     44 H19A         6.5670    -1.0370    -0.5310 hc         1 O1Z       0.044700
     45 H20          4.2780    -0.8280    -1.4750 hc         1 O1Z       0.047450
     46 H20A         4.5880     0.8320    -1.9750 hc         1 O1Z       0.047450
@<TRIPOS>BOND
     1     1     3 ar  
     2     1    10 ar  
     3     1    11 ar  
     4     2    17 1   
     5     2    19 1   
     6     3     5 ar  
     7     3    26 1   
     8     4    18 1   
     9     4    19 2   
    10     5    15 ar  
    11     5    27 1   
    12     6    19 1   
    13     6    20 1   
    14     6    28 1   
    15     7    16 2   
    16     8    10 ar  
    17     8    15 ar  
    18     8    29 1   
    19     9    18 1   
    20     9    30 1   
    21     9    31 1   
    22    10    14 ar  
    23    11    12 ar  
    24    11    32 1   
    25    12    13 ar  
    26    12    33 1   
    27    13    14 ar  
    28    13    34 1   
    29    14    35 1   
    30    15    16 1   
    31    16    17 1   
    32    17    18 2   
    33    20    21 1   
    34    20    25 1   
    35    20    36 1   
    36    21    22 1   
    37    21    37 1   
    38    21    38 1   
    39    22    23 1   
    40    22    39 1   
    41    22    40 1   
    42    23    24 1   
    43    23    41 1   
    44    23    42 1   
    45    24    25 1   
    46    24    43 1   
    47    24    44 1   
    48    25    45 1   
    49    25    46 1   
@<TRIPOS>SUBSTRUCTURE
     1 O1Z         1 TEMP              0 ****  ****    0 ROOT
