@<TRIPOS>MOLECULE
O1Z
   46    49     1     0     0
SMALL
bcc


@<TRIPOS>ATOM
      1 C1          -4.9380     0.4230    -0.5230 ca         1 O1Z      -0.025000
      2 S1           0.2470     0.2900    -0.1590 ss         1 O1Z      -0.249300
      3 C2          -4.7280    -0.8590    -1.0870 ca         1 O1Z      -0.128000
      4 N2           2.1920    -1.2890     0.5190 nc         1 O1Z      -0.826000
      5 C3          -3.6120    -1.5850    -0.7820 ca         1 O1Z      -0.086000
      6 N3           2.8610     0.8440    -0.1230 nu         1 O1Z      -0.854900
      7 O3          -1.6390    -3.1020     0.6980 o          1 O1Z      -0.605100
      8 C4          -2.8080     0.1790     0.6480 ca         1 O1Z      -0.088000
      9 N4           1.1430    -3.2570     1.1180 nv         1 O1Z      -0.940500
     10 C5          -3.9640     0.9440     0.3660 ca         1 O1Z      -0.045000
     11 C6          -6.0870     1.1930    -0.8110 ca         1 O1Z      -0.119000
     12 C7          -6.2610     2.4240    -0.2390 ca         1 O1Z      -0.122000
     13 C8          -5.2940     2.9410     0.6490 ca         1 O1Z      -0.130000
     14 C9          -4.1720     2.2170     0.9460 ca         1 O1Z      -0.112000
     15 C10         -2.6230    -1.0570     0.0840 ca         1 O1Z      -0.139600
     16 C11         -1.4420    -1.9110     0.4200 c          1 O1Z       0.646300
     17 C12         -0.1480    -1.3390     0.3850 cd         1 O1Z      -0.394000
     18 C13          1.0560    -2.0020     0.6840 cc         1 O1Z       0.766200
     19 C14          1.9310    -0.0770     0.0910 cd         1 O1Z       0.781300
     20 C15          4.2880     0.6070     0.0410 c6         1 O1Z       0.232500
     21 C16          4.9670     1.8910     0.5110 c6         1 O1Z      -0.090400
     22 C17          6.4650     1.6700     0.6950 c6         1 O1Z      -0.071900
     23 C18          7.1110     1.1390    -0.5800 c6         1 O1Z      -0.078400
     24 C19          6.4230    -0.1380    -1.0550 c6         1 O1Z      -0.071900
     25 C20          4.9250     0.0810    -1.2440 c6         1 O1Z      -0.090400
     26 H2          -5.4710    -1.2640    -1.7630 ha         1 O1Z       0.132000
     27 H3          -3.4720    -2.5670    -1.2130 ha         1 O1Z       0.144000
     28 HN3          2.5800     1.7330    -0.5080 hn         1 O1Z       0.446800
     29 H4          -2.0870     0.5840     1.3490 ha         1 O1Z       0.140000
     30 HN4          2.0440    -3.6810     1.2510 hn         1 O1Z       0.460300
     31 HN4A         0.3110    -3.8200     1.1790 hn         1 O1Z       0.460300
     32 H6          -6.8310     0.7940    -1.4910 ha         1 O1Z       0.131000
     33 H7          -7.1440     3.0080    -0.4660 ha         1 O1Z       0.130000
     34 H8          -5.4450     3.9160     1.0930 ha         1 O1Z       0.130000
     35 H9          -3.4270     2.6140     1.6250 ha         1 O1Z       0.131000
     36 H15          4.4000    -0.1480     0.8230 h1         1 O1Z       0.086700
     37 H16          4.8030     2.6810    -0.2320 hc         1 O1Z       0.047450
     38 H16A         4.5100     2.2280     1.4440 hc         1 O1Z       0.047450
     39 H17          6.9390     2.6040     1.0030 hc         1 O1Z       0.044700
     40 H17A         6.6260     0.9550     1.5100 hc         1 O1Z       0.044700
     41 H18          7.0380     1.9000    -1.3650 hc         1 O1Z       0.041700
     42 H18A         8.1750     0.9580    -0.4170 hc         1 O1Z       0.041700
     43 H19          6.8680    -0.4860    -1.9890 hc         1 O1Z       0.044700
     44 H19A         6.5830    -0.9330    -0.3180 hc         1 O1Z       0.044700
     45 H20          4.4330    -0.8470    -1.5430 hc         1 O1Z       0.047450
     46 H20A         4.7580     0.8090    -2.0470 hc         1 O1Z       0.047450
@<TRIPOS>BOND
     1     1     3 ar  
     2     1    10 ar  
     3     1    11 ar  
     4     2    17 1   
     5     2    19 1   
     6     3     5 ar  
     7     3    26 1   
     8     4    18 1   
     9     4    19 2   
    10     5    15 ar  
    11     5    27 1   
    12     6    19 1   
    13     6    20 1   
    14     6    28 1   
    15     7    16 2   
    16     8    10 ar  
    17     8    15 ar  
    18     8    29 1   
    19     9    18 1   
    20     9    30 1   
    21     9    31 1   
    22    10    14 ar  
    23    11    12 ar  
    24    11    32 1   
    25    12    13 ar  
    26    12    33 1   
    27    13    14 ar  
    28    13    34 1   
    29    14    35 1   
    30    15    16 1   
    31    16    17 1   
    32    17    18 2   
    33    20    21 1   
    34    20    25 1   
    35    20    36 1   
    36    21    22 1   
    37    21    37 1   
    38    21    38 1   
    39    22    23 1   
    40    22    39 1   
    41    22    40 1   
    42    23    24 1   
    43    23    41 1   
    44    23    42 1   
    45    24    25 1   
    46    24    43 1   
    47    24    44 1   
    48    25    45 1   
    49    25    46 1   
@<TRIPOS>SUBSTRUCTURE
     1 O1Z         1 TEMP              0 ****  ****    0 ROOT
