@<TRIPOS>MOLECULE
O20
   88    92     1     0     0
SMALL
No Charge or Current Charge


@<TRIPOS>ATOM
      1 C18          2.0180    29.2350     3.7200 c3         1 O20      -0.102433
      2 C17          3.6020    27.3590     3.0970 c3         1 O20      -0.102433
      3 C16          3.1610    28.3210     4.2230 c3         1 O20       0.193000
      4 C19          4.3790    29.1290     4.7420 c3         1 O20      -0.102433
      5 C20          1.4710    30.7620     8.4740 c6         1 O20       0.213800
      6 C21          2.8750    31.4220     8.4930 c6         1 O20      -0.072900
      7 C22          2.8970    32.8080     7.7770 c6         1 O20      -0.049000
      8 C23          2.2990    32.6330     6.3480 c6         1 O20      -0.072900
      9 C24          0.9050    31.9570     6.3660 c6         1 O20       0.213800
     10 C11          2.1530    28.0080     6.5290 c3         1 O20       0.057600
     11 C12          2.4490    27.0790     7.7650 c          1 O20       0.726000
     12 C34         -4.8460    34.9590     5.5350 c6         1 O20       0.169800
     13 C27         -2.0030    31.5790     8.2090 ca         1 O20      -0.096000
     14 Cl1         -7.6830    37.2070     5.4860 cl         1 O20      -0.222000
     15 C2          -1.9840    31.0670     6.8920 cp         1 O20       0.006000
     16 C3          -1.3020    29.7790     6.5770 cp         1 O20      -0.171000
     17 C4          -2.0830    28.6980     6.1380 ca         1 O20       0.340900
     18 N5          -1.5900    27.4820     5.8560 nb         1 O20      -0.709000
     19 C6          -0.2630    27.2830     5.9920 ca         1 O20       0.395300
     20 C7           0.6380    28.2990     6.4020 ca         1 O20      -0.078300
     21 C8           0.0990    29.5810     6.7090 ca         1 O20       0.336000
     22 C9           0.1670    25.8610     5.6420 c3         1 O20      -0.143400
     23 N10          0.9600    30.6510     7.0820 nh         1 O20      -0.840400
     24 O13          3.2830    26.1860     7.6580 o          1 O20      -0.713500
     25 O14          1.7960    27.2400     8.7880 o          1 O20      -0.713500
     26 O15          2.6770    27.4480     5.2780 os         1 O20      -0.434000
     27 C28         -2.6290    32.8020     8.4970 ca         1 O20      -0.114000
     28 C29         -3.2550    33.5370     7.4740 ca         1 O20      -0.093300
     29 C30         -3.2640    33.0300     6.1570 ca         1 O20      -0.070300
     30 C31         -2.6320    31.8040     5.8750 ca         1 O20      -0.109000
     31 C32         -3.9460    34.8670     7.8040 c6         1 O20       0.219100
     32 N33         -4.2000    35.7350     6.6250 n3         1 O20      -0.721600
     33 C35         -3.9230    33.8260     5.0290 c6         1 O20      -0.026100
     34 C36         -4.9330    36.9720     6.9930 c3         1 O20       0.215100
     35 C37         -5.0330    37.9980     5.8550 ca         1 O20      -0.068300
     36 C38         -6.2420    38.1650     5.1330 ca         1 O20       0.129000
     37 C39         -6.3290    39.1070     4.0960 ca         1 O20      -0.117000
     38 C40         -5.2190    39.8960     3.7610 ca         1 O20      -0.100000
     39 C41         -4.0170    39.7410     4.4670 ca         1 O20      -0.118000
     40 C42         -3.9110    38.8000     5.5110 ca         1 O20      -0.035300
     41 C43         -2.5780    38.6690     6.2450 c3         1 O20      -0.055800
     42 H53          1.7820    30.0120     4.4520 hc         1 O20       0.032478
     43 H55          2.3130    29.7420     2.7940 hc         1 O20       0.032478
     44 H54          1.1100    28.6560     3.5150 hc         1 O20       0.032478
     45 H51          4.3870    26.6790     3.4490 hc         1 O20       0.032478
     46 H50          2.7560    26.7530     2.7470 hc         1 O20       0.032478
     47 H52          3.9960    27.9170     2.2390 hc         1 O20       0.032478
     48 H57          4.0800    29.9100     5.4500 hc         1 O20       0.032478
     49 H56          5.1030    28.4710     5.2370 hc         1 O20       0.032478
     50 H58          4.8890    29.6270     3.9090 hc         1 O20       0.032478
     51 H59          0.7780    31.3550     9.0860 h1         1 O20       0.043200
     52 H60          1.5390    29.7710     8.9410 h1         1 O20       0.043200
     53 H61          3.5890    30.7440     8.0060 hc         1 O20       0.043950
     54 H62          3.2140    31.5250     9.5320 hc         1 O20       0.043950
     55 H63          2.9760    32.0260     5.7330 hc         1 O20       0.043950
     56 H64          2.2240    33.6070     5.8450 hc         1 O20       0.043950
     57 H65          0.1830    32.6310     6.8470 h1         1 O20       0.043200
     58 H66          0.5670    31.8110     5.3290 h1         1 O20       0.043200
     59 H48          2.6890    28.9290     6.7670 h1         1 O20       0.047700
     60 H79         -5.0930    35.6060     4.6810 h1         1 O20       0.034700
     61 H78         -5.7900    34.5220     5.8930 h1         1 O20       0.034700
     62 H73         -1.5260    31.0180     9.0080 ha         1 O20       0.129000
     63 H44         -3.1600    28.8110     6.0230 h4         1 O20      -0.002900
     64 H45         -0.6930    25.1890     5.5320 hc         1 O20       0.056367
     65 H46          0.7140    25.8400     4.6930 hc         1 O20       0.056367
     66 H47          0.8060    25.4280     6.4160 hc         1 O20       0.056367
     67 H68          4.8170    33.4460     8.6660 hc         1 O20       0.026867
     68 H69          4.9940    32.6260     7.1100 hc         1 O20       0.026867
     69 H67          4.4130    34.2940     7.1650 hc         1 O20       0.026867
     70 H70          2.5230    34.0090     9.5970 hc         1 O20       0.026867
     71 H71          2.1200    34.8530     8.0970 hc         1 O20       0.026867
     72 H72          1.0460    33.6030     8.7240 hc         1 O20       0.026867
     73 H74         -2.6280    33.1790     9.5180 ha         1 O20       0.103000
     74 H75         -2.6260    31.4250     4.8560 ha         1 O20       0.114000
     75 H76         -3.3270    35.4090     8.5350 h1         1 O20       0.033200
     76 H77         -4.8960    34.6340     8.3070 h1         1 O20       0.033200
     77 H81         -4.4970    33.1550     4.3760 hc         1 O20       0.051700
     78 H80         -3.1350    34.2640     4.4020 hc         1 O20       0.051700
     79 H82         -4.4270    37.4560     7.8390 h1         1 O20       0.042700
     80 H83         -5.9320    36.7150     7.3660 h1         1 O20       0.042700
     81 H84         -7.2610    39.2250     3.5490 ha         1 O20       0.124000
     82 H85         -5.2900    40.6240     2.9570 ha         1 O20       0.113000
     83 H86         -3.1630    40.3580     4.1970 ha         1 O20       0.114000
     84 H87         -2.6830    38.9230     7.3060 hc         1 O20       0.052033
     85 H89         -2.1860    37.6480     6.1780 hc         1 O20       0.052033
     86 H88         -1.8140    39.3350     5.8270 hc         1 O20       0.052033
     87 C25          4.3640    33.3240     7.6740 c3         1 O20      -0.080600
     88 C26          2.0990    33.8760     8.5940 c3         1 O20      -0.080600
@<TRIPOS>BOND
     1     1     3 1   
     2     1    42 1   
     3     1    43 1   
     4     1    44 1   
     5     2     3 1   
     6     2    45 1   
     7     2    46 1   
     8     2    47 1   
     9     3     4 1   
    10     3    26 1   
    11     4    48 1   
    12     4    49 1   
    13     4    50 1   
    14     5     6 1   
    15     5    23 1   
    16     5    51 1   
    17     5    52 1   
    18     6     7 1   
    19     6    53 1   
    20     6    54 1   
    21     7     8 1   
    22     7    87 1   
    23     7    88 1   
    24     8     9 1   
    25     8    55 1   
    26     8    56 1   
    27     9    23 1   
    28     9    57 1   
    29     9    58 1   
    30    10    11 1   
    31    10    20 1   
    32    10    26 1   
    33    10    59 1   
    34    11    24 1   
    35    11    25 1   
    36    12    32 1   
    37    12    33 1   
    38    12    60 1   
    39    12    61 1   
    40    13    15 ar  
    41    13    27 ar  
    42    13    62 1   
    43    14    36 1   
    44    15    16 1   
    45    15    30 ar  
    46    16    17 ar  
    47    16    21 ar  
    48    17    18 ar  
    49    17    63 1   
    50    18    19 ar  
    51    19    20 ar  
    52    19    22 1   
    53    20    21 ar  
    54    21    23 1   
    55    22    64 1   
    56    22    65 1   
    57    22    66 1   
    58    27    28 ar  
    59    27    73 1   
    60    28    29 ar  
    61    28    31 1   
    62    29    30 ar  
    63    29    33 1   
    64    30    74 1   
    65    31    32 1   
    66    31    75 1   
    67    31    76 1   
    68    32    34 1   
    69    33    77 1   
    70    33    78 1   
    71    34    35 1   
    72    34    79 1   
    73    34    80 1   
    74    35    36 ar  
    75    35    40 ar  
    76    36    37 ar  
    77    37    38 ar  
    78    37    81 1   
    79    38    39 ar  
    80    38    82 1   
    81    39    40 ar  
    82    39    83 1   
    83    40    41 1   
    84    41    84 1   
    85    41    85 1   
    86    41    86 1   
    87    67    87 1   
    88    68    87 1   
    89    69    87 1   
    90    70    88 1   
    91    71    88 1   
    92    72    88 1   
@<TRIPOS>SUBSTRUCTURE
     1 O20         1 TEMP              0 ****  ****    0 ROOT
