@<TRIPOS>MOLECULE
O20
   88    92     1     0     0
SMALL
abcg2


@<TRIPOS>ATOM
      1 C18          1.9460    29.5250     3.7190 c3         1 O20      -0.102433
      2 C17          3.4430    27.6410     3.0650 c3         1 O20      -0.102433
      3 C16          3.0390    28.5740     4.2010 c3         1 O20       0.193000
      4 C19          4.2630    29.3700     4.6600 c3         1 O20      -0.102433
      5 C20          1.4260    30.8950     8.3100 c6         1 O20       0.213800
      6 C21          2.7160    31.7000     8.2340 c6         1 O20      -0.072900
      7 C22          2.5450    33.0520     7.5300 c6         1 O20      -0.049000
      8 C23          1.8440    32.8070     6.1870 c6         1 O20      -0.072900
      9 C24          0.5530    32.0140     6.3310 c6         1 O20       0.213800
     10 C11          2.1430    28.2510     6.4490 c3         1 O20       0.057600
     11 C12          2.7220    27.4340     7.6410 c          1 O20       0.726000
     12 C34         -4.9860    34.7210     5.6120 c6         1 O20       0.169800
     13 C27         -2.1560    31.4560     8.2800 ca         1 O20      -0.096000
     14 CL1         -7.2500    37.5960     5.0610 cl         1 O20      -0.222000
     15 C2          -2.1210    30.9490     6.9820 cp         1 O20       0.006000
     16 C3          -1.3720    29.7110     6.6740 cp         1 O20      -0.171000
     17 C4          -2.0720    28.5630     6.3390 ca         1 O20       0.340900
     18 N5          -1.5100    27.3820     6.1390 nb         1 O20      -0.709000
     19 C6          -0.1860    27.2810     6.2330 ca         1 O20       0.395300
     20 C7           0.6370    28.3830     6.5020 ca         1 O20      -0.078300
     21 C8           0.0290    29.6290     6.7420 ca         1 O20       0.336000
     22 C9           0.3630    25.8960     6.0370 c3         1 O20      -0.143400
     23 N10          0.8310    30.7530     6.9920 nh         1 O20      -0.840400
     24 O13          3.7590    26.7880     7.4340 o          1 O20      -0.713500
     25 O14          2.1060    27.5560     8.7200 o          1 O20      -0.713500
     26 O15          2.5670    27.7030     5.2230 os         1 O20      -0.434000
     27 C28         -2.8160    32.6430     8.5440 ca         1 O20      -0.114000
     28 C29         -3.4500    33.3550     7.5280 ca         1 O20      -0.093300
     29 C30         -3.4440    32.8430     6.2330 ca         1 O20      -0.070300
     30 C31         -2.7880    31.6400     5.9800 ca         1 O20      -0.109000
     31 C32         -4.1360    34.6580     7.8350 c6         1 O20       0.219100
     32 N33         -4.2950    35.4670     6.6460 n3         1 O20      -0.721600
     33 C35         -4.0900    33.6040     5.1080 c6         1 O20      -0.026100
     34 C36         -4.9170    36.7450     6.9460 c3         1 O20       0.215100
     35 C37         -4.6440    37.7540     5.8590 ca         1 O20      -0.068300
     36 C38         -5.6180    38.2000     4.9700 ca         1 O20       0.129000
     37 C39         -5.3510    39.1250     3.9690 ca         1 O20      -0.117000
     38 C40         -4.0680    39.6250     3.8480 ca         1 O20      -0.100000
     39 C41         -3.0760    39.2010     4.7210 ca         1 O20      -0.118000
     40 C42         -3.3440    38.2750     5.7220 ca         1 O20      -0.035300
     41 C43         -2.2430    37.8530     6.6510 c3         1 O20      -0.055800
     42 H53          1.6470    30.2210     4.5020 hc         1 O20       0.032478
     43 H55          2.3080    30.1150     2.8750 hc         1 O20       0.032478
     44 H54          1.0630    28.9740     3.3910 hc         1 O20       0.032478
     45 H51          4.2310    26.9540     3.3780 hc         1 O20       0.032478
     46 H50          2.5910    27.0500     2.7220 hc         1 O20       0.032478
     47 H52          3.8170    28.2140     2.2160 hc         1 O20       0.032478
     48 H57          4.0190    30.1240     5.4120 hc         1 O20       0.032478
     49 H56          5.0250    28.7090     5.0780 hc         1 O20       0.032478
     50 H58          4.7020    29.8990     3.8130 hc         1 O20       0.032478
     51 H59          0.7200    31.3760     9.0040 h1         1 O20       0.043200
     52 H60          1.6320    29.9040     8.7130 h1         1 O20       0.043200
     53 H61          3.4650    31.1090     7.6960 hc         1 O20       0.043950
     54 H62          3.1060    31.8510     9.2460 hc         1 O20       0.043950
     55 H63          2.5250    32.2660     5.5210 hc         1 O20       0.043950
     56 H64          1.6230    33.7640     5.7040 hc         1 O20       0.043950
     57 H65         -0.1900    32.6220     6.8620 h1         1 O20       0.043200
     58 H66          0.1360    31.8120     5.3430 h1         1 O20       0.043200
     59 H48          2.5480    29.2610     6.5710 h1         1 O20       0.047700
     60 H79         -5.2280    35.3860     4.7820 h1         1 O20       0.034700
     61 H78         -5.9410    34.3110     5.9820 h1         1 O20       0.034700
     62 H73         -1.6560    30.9270     9.0820 ha         1 O20       0.129000
     63 H44         -3.1550    28.6040     6.2640 h4         1 O20      -0.002900
     64 H45         -0.4580    25.1970     5.8950 hc         1 O20       0.056367
     65 H46          1.0240    25.8340     5.1760 hc         1 O20       0.056367
     66 H47          0.9360    25.5680     6.9060 hc         1 O20       0.056367
     67 H68          4.4490    33.8380     8.2210 hc         1 O20       0.026867
     68 H69          4.5370    33.0190     6.6610 hc         1 O20       0.026867
     69 H67          3.8310    34.6340     6.7730 hc         1 O20       0.026867
     70 H70          2.2450    34.2160     9.3390 hc         1 O20       0.026867
     71 H71          1.5800    34.9650     7.8880 hc         1 O20       0.026867
     72 H72          0.7400    33.6240     8.6520 hc         1 O20       0.026867
     73 H74         -2.8290    33.0330     9.5560 ha         1 O20       0.103000
     74 H75         -2.7650    31.2560     4.9660 ha         1 O20       0.114000
     75 H76         -3.5420    35.2150     8.5640 h1         1 O20       0.033200
     76 H77         -5.1070    34.4490     8.3200 h1         1 O20       0.033200
     77 H81         -4.6610    32.9240     4.4730 hc         1 O20       0.051700
     78 H80         -3.3080    34.0330     4.4750 hc         1 O20       0.051700
     79 H82         -4.4840    37.1180     7.8770 h1         1 O20       0.042700
     80 H83         -5.9940    36.6450     7.1360 h1         1 O20       0.042700
     81 H84         -6.1350    39.4440     3.2960 ha         1 O20       0.124000
     82 H85         -3.8430    40.3470     3.0740 ha         1 O20       0.113000
     83 H86         -2.0730    39.5990     4.6230 ha         1 O20       0.114000
     84 H87         -2.4690    38.1160     7.6870 hc         1 O20       0.052033
     85 H89         -2.0960    36.7740     6.6230 hc         1 O20       0.052033
     86 H88         -1.3040    38.3380     6.3870 hc         1 O20       0.052033
     87 C25          3.9180    33.6710     7.2820 c3         1 O20      -0.080600
     88 C26          1.7270    34.0120     8.3990 c3         1 O20      -0.080600
@<TRIPOS>BOND
     1     1     3 1   
     2     1    42 1   
     3     1    43 1   
     4     1    44 1   
     5     2     3 1   
     6     2    45 1   
     7     2    46 1   
     8     2    47 1   
     9     3     4 1   
    10     3    26 1   
    11     4    48 1   
    12     4    49 1   
    13     4    50 1   
    14     5     6 1   
    15     5    23 1   
    16     5    51 1   
    17     5    52 1   
    18     6     7 1   
    19     6    53 1   
    20     6    54 1   
    21     7     8 1   
    22     7    87 1   
    23     7    88 1   
    24     8     9 1   
    25     8    55 1   
    26     8    56 1   
    27     9    23 1   
    28     9    57 1   
    29     9    58 1   
    30    10    11 1   
    31    10    20 1   
    32    10    26 1   
    33    10    59 1   
    34    11    24 1   
    35    11    25 1   
    36    12    32 1   
    37    12    33 1   
    38    12    60 1   
    39    12    61 1   
    40    13    15 ar  
    41    13    27 ar  
    42    13    62 1   
    43    14    36 1   
    44    15    16 1   
    45    15    30 ar  
    46    16    17 ar  
    47    16    21 ar  
    48    17    18 ar  
    49    17    63 1   
    50    18    19 ar  
    51    19    20 ar  
    52    19    22 1   
    53    20    21 ar  
    54    21    23 1   
    55    22    64 1   
    56    22    65 1   
    57    22    66 1   
    58    27    28 ar  
    59    27    73 1   
    60    28    29 ar  
    61    28    31 1   
    62    29    30 ar  
    63    29    33 1   
    64    30    74 1   
    65    31    32 1   
    66    31    75 1   
    67    31    76 1   
    68    32    34 1   
    69    33    77 1   
    70    33    78 1   
    71    34    35 1   
    72    34    79 1   
    73    34    80 1   
    74    35    36 ar  
    75    35    40 ar  
    76    36    37 ar  
    77    37    38 ar  
    78    37    81 1   
    79    38    39 ar  
    80    38    82 1   
    81    39    40 ar  
    82    39    83 1   
    83    40    41 1   
    84    41    84 1   
    85    41    85 1   
    86    41    86 1   
    87    67    87 1   
    88    68    87 1   
    89    69    87 1   
    90    70    88 1   
    91    71    88 1   
    92    72    88 1   
@<TRIPOS>SUBSTRUCTURE
     1 O20         1 TEMP              0 ****  ****    0 ROOT
