@<TRIPOS>MOLECULE
O21
   80    83     1     0     0
SMALL
No Charge or Current Charge


@<TRIPOS>ATOM
      1 C10        -16.5300   -20.4880     9.2290 c3         1 O21      -0.094400
      2 C11        -16.3710   -19.0480     8.6940 c3         1 O21       0.172800
      3 C12        -15.6070   -16.7270     9.0790 c6         1 O21       0.165800
      4 C13        -15.0790   -15.6890    10.1220 c6         1 O21       0.163800
      5 N4         -16.0230   -15.5060    11.2670 n3         1 O21      -0.724600
      6 C14        -15.5440   -14.5100    12.2490 c3         1 O21       0.154100
      7 C15        -16.3320   -16.8290    11.8890 c6         1 O21       0.163800
      8 C16        -16.8570   -17.8700    10.8480 c6         1 O21       0.165800
      9 N3         -15.9140   -18.0550     9.6970 n3         1 O21      -0.730600
     10 C9         -15.2560   -21.0350     9.9030 c3         1 O21       0.109000
     11 N2         -15.4300   -22.4400    10.3830 n          1 O21      -0.409300
     12 C8         -15.5230   -22.6250    11.7870 c          1 O21       0.667100
     13 O3         -15.8330   -21.7090    12.5390 o          1 O21      -0.603100
     14 N1         -15.2150   -23.8780    12.2790 ns         1 O21      -0.173000
     15 C7         -15.1010   -24.3040    13.6260 ca         1 O21       0.062000
     16 C30        -15.9500   -25.3240    14.1040 ca         1 O21       0.044500
     17 Cl2        -17.1570   -26.0470    13.0300 cl         1 O21      -0.170500
     18 C6         -14.1310   -23.7430    14.4870 ca         1 O21       0.044500
     19 Cl1        -12.9860   -22.5300    13.8860 cl         1 O21      -0.170500
     20 C4         -14.0330   -24.1800    15.8260 ca         1 O21       0.195100
     21 O2         -13.0680   -23.6050    16.6350 os         1 O21      -0.328100
     22 C5         -12.8820   -23.9820    18.0110 c3         1 O21       0.148900
     23 C3         -14.8990   -25.1860    16.3040 ca         1 O21      -0.282000
     24 C2         -15.8560   -25.7630    15.4420 ca         1 O21       0.195100
     25 O1         -16.7170   -26.7580    15.8700 os         1 O21      -0.328100
     26 C1         -16.7010   -27.2750    17.2120 c3         1 O21       0.148900
     27 C17        -15.2770   -23.5120     9.4250 ca         1 O21       0.302900
     28 C18        -15.8510   -24.7810     9.6140 ca         1 O21      -0.337000
     29 N8         -14.4610   -23.2950     8.3720 nb         1 O21      -0.308000
     30 C29        -14.2530   -24.3230     7.5260 ca         1 O21       0.200900
     31 N7         -14.7780   -25.5590     7.6230 nb         1 O21      -0.271000
     32 C19        -15.5890   -25.7710     8.6650 ca         1 O21       0.382900
     33 N5         -16.1420   -27.0360     8.7510 nu         1 O21      -0.951900
     34 C20        -17.1710   -27.5850     9.5350 ca         1 O21       0.209000
     35 C21        -16.9350   -28.8230    10.1590 ca         1 O21      -0.102000
     36 C22        -17.9210   -29.4230    10.9570 ca         1 O21      -0.122000
     37 C23        -19.1620   -28.7940    11.1240 ca         1 O21      -0.086000
     38 C24        -19.4220   -27.5680    10.4890 ca         1 O21      -0.124000
     39 C25        -18.4340   -26.9500     9.6870 ca         1 O21      -0.017000
     40 N6         -18.6720   -25.7320     8.9880 ns         1 O21      -0.147000
     41 C26        -19.6830   -24.7870     9.0520 c          1 O21       0.602300
     42 O4         -20.6560   -24.8640     9.7910 o          1 O21      -0.580100
     43 C27        -19.5040   -23.6120     8.1420 ce         1 O21      -0.277200
     44 C28        -18.4720   -23.3990     7.2830 c2         1 O21      -0.260000
     45 H1         -17.3670   -20.5350     9.9360 hc         1 O21       0.053700
     46 H2         -16.7980   -21.1400     8.3900 hc         1 O21       0.053700
     47 H3         -15.6480   -19.0820     7.8680 h1         1 O21       0.032200
     48 H4         -17.3310   -18.7300     8.2640 h1         1 O21       0.032200
     49 H5         -16.5080   -16.3150     8.6020 h1         1 O21       0.039450
     50 H6         -14.8500   -16.8420     8.2890 h1         1 O21       0.039450
     51 H7         -14.1010   -16.0320    10.4900 h1         1 O21       0.039950
     52 H8         -14.9120   -14.7310     9.6090 h1         1 O21       0.039950
     53 H10        -16.2850   -14.3660    13.0470 h1         1 O21       0.029700
     54 H11        -14.6010   -14.8340    12.7090 h1         1 O21       0.029700
     55 H12        -15.3760   -13.5380    11.7650 h1         1 O21       0.029700
     56 H13        -15.4310   -17.2420    12.3680 h1         1 O21       0.039950
     57 H14        -17.0890   -16.7120    12.6790 h1         1 O21       0.039950
     58 H15        -17.8390   -17.5350    10.4820 h1         1 O21       0.039450
     59 H16        -17.0180   -18.8210    11.3750 h1         1 O21       0.039450
     60 H18        -14.4180   -20.9700     9.1970 h1         1 O21       0.077200
     61 H19        -14.9840   -20.3760    10.7380 h1         1 O21       0.077200
     62 H20        -15.0020   -24.5780    11.5830 hn         1 O21       0.222000
     63 H21        -12.0660   -23.4000    18.4570 h1         1 O21       0.045867
     64 H22        -13.7920   -23.7920    18.5940 h1         1 O21       0.045867
     65 H23        -12.6240   -25.0460    18.0930 h1         1 O21       0.045867
     66 H24        -14.8240   -25.5220    17.3310 ha         1 O21       0.126000
     67 H25        -17.4650   -28.0540    17.3270 h1         1 O21       0.045867
     68 H26        -15.7260   -27.7200    17.4480 h1         1 O21       0.045867
     69 H27        -16.9140   -26.4810    17.9390 h1         1 O21       0.045867
     70 H28        -16.5280   -24.9840    10.4320 ha         1 O21       0.153000
     71 H29        -13.5920   -24.1370     6.6810 h5         1 O21       0.052100
     72 H30        -15.6020   -27.7270     8.2270 hn         1 O21       0.509000
     73 H31        -15.9740   -29.3160    10.0380 ha         1 O21       0.120000
     74 H32        -17.7230   -30.3760    11.4440 ha         1 O21       0.122000
     75 H33        -19.9290   -29.2600    11.7390 ha         1 O21       0.121000
     76 H34        -20.4030   -27.1220    10.6210 ha         1 O21       0.152000
     77 H35        -17.9330   -25.5000     8.3400 hn         1 O21       0.165000
     78 H36        -20.3080   -22.8800     8.2140 ha         1 O21       0.205000
     79 H38        -18.4340   -22.5050     6.6580 ha         1 O21       0.172500
     80 H39        -17.6380   -24.0920     7.1630 ha         1 O21       0.172500
@<TRIPOS>BOND
     1     1     2 1   
     2     1    10 1   
     3     1    45 1   
     4     1    46 1   
     5     2     9 1   
     6     2    47 1   
     7     2    48 1   
     8     3     4 1   
     9     3     9 1   
    10     3    49 1   
    11     3    50 1   
    12     4     5 1   
    13     4    51 1   
    14     4    52 1   
    15     5     6 1   
    16     5     7 1   
    17     6    53 1   
    18     6    54 1   
    19     6    55 1   
    20     7     8 1   
    21     7    56 1   
    22     7    57 1   
    23     8     9 1   
    24     8    58 1   
    25     8    59 1   
    26    10    11 1   
    27    10    60 1   
    28    10    61 1   
    29    11    12 1   
    30    11    27 1   
    31    12    13 2   
    32    12    14 1   
    33    14    15 1   
    34    14    62 1   
    35    15    16 ar  
    36    15    18 ar  
    37    16    17 1   
    38    16    24 ar  
    39    18    19 1   
    40    18    20 ar  
    41    20    21 1   
    42    20    23 ar  
    43    21    22 1   
    44    22    63 1   
    45    22    64 1   
    46    22    65 1   
    47    23    24 ar  
    48    23    66 1   
    49    24    25 1   
    50    25    26 1   
    51    26    67 1   
    52    26    68 1   
    53    26    69 1   
    54    27    28 ar  
    55    27    29 ar  
    56    28    32 ar  
    57    28    70 1   
    58    29    30 ar  
    59    30    31 ar  
    60    30    71 1   
    61    31    32 ar  
    62    32    33 1   
    63    33    34 1   
    64    33    72 1   
    65    34    35 ar  
    66    34    39 ar  
    67    35    36 ar  
    68    35    73 1   
    69    36    37 ar  
    70    36    74 1   
    71    37    38 ar  
    72    37    75 1   
    73    38    39 ar  
    74    38    76 1   
    75    39    40 1   
    76    40    41 1   
    77    40    77 1   
    78    41    42 2   
    79    41    43 1   
    80    43    44 2   
    81    43    78 1   
    82    44    79 1   
    83    44    80 1   
@<TRIPOS>SUBSTRUCTURE
     1 O21         1 TEMP              0 ****  ****    0 ROOT
