@<TRIPOS>MOLECULE
O21
   80    83     1     0     0
SMALL
abcg2


@<TRIPOS>ATOM
      1 C10        -18.1820   -22.3890    11.5310 c3         1 O21      -0.094400
      2 C11        -18.8580   -21.5190    10.4740 c3         1 O21       0.172800
      3 C12        -18.6870   -19.5430     9.1010 c6         1 O21       0.165800
      4 C13        -17.9480   -18.2320     8.9050 c6         1 O21       0.163800
      5 N4         -18.1310   -17.3580    10.0590 n3         1 O21      -0.724600
      6 C14        -17.4610   -16.0820     9.8760 c3         1 O21       0.154100
      7 C15        -17.6860   -18.0290    11.2760 c6         1 O21       0.163800
      8 C16        -18.4220   -19.3440    11.4700 c6         1 O21       0.165800
      9 N3         -18.2330   -20.2120    10.3140 n3         1 O21      -0.730600
     10 C9         -16.6710   -22.4740    11.3120 c3         1 O21       0.109000
     11 N2         -16.0540   -23.6850    11.8840 n          1 O21      -0.409300
     12 C8         -15.4470   -23.5130    13.1490 c          1 O21       0.667100
     13 O3         -15.6020   -22.4650    13.7640 o          1 O21      -0.603100
     14 N1         -14.6900   -24.5400    13.6080 ns         1 O21      -0.173000
     15 C7         -14.0650   -24.4990    14.8680 ca         1 O21       0.062000
     16 C30        -14.5400   -25.3040    15.9050 ca         1 O21       0.044500
     17 CL2        -15.9390   -26.3050    15.6480 cl         1 O21      -0.170500
     18 C6         -12.9420   -23.7000    15.0870 ca         1 O21       0.044500
     19 CL1        -12.2830   -22.7430    13.7930 cl         1 O21      -0.170500
     20 C4         -12.3120   -23.6840    16.3370 ca         1 O21       0.195100
     21 O2         -11.2340   -22.8830    16.4700 os         1 O21      -0.328100
     22 C5         -10.5610   -22.8430    17.7310 c3         1 O21       0.148900
     23 C3         -12.8030   -24.4890    17.3620 ca         1 O21      -0.282000
     24 C2         -13.9110   -25.3070    17.1550 ca         1 O21       0.195100
     25 O1         -14.4340   -26.1110    18.1040 os         1 O21      -0.328100
     26 C1         -13.8250   -26.1290    19.3980 c3         1 O21       0.148900
     27 C17        -16.1350   -24.8590    11.1450 ca         1 O21       0.302900
     28 C18        -16.8520   -24.8930     9.9500 ca         1 O21      -0.337000
     29 N8         -15.5090   -25.9700    11.5840 nb         1 O21      -0.308000
     30 C29        -15.5840   -27.0570    10.8230 ca         1 O21       0.200900
     31 N7         -16.1820   -27.1760     9.6500 nb         1 O21      -0.271000
     32 C19        -16.8150   -26.0700     9.2050 ca         1 O21       0.382900
     33 N5         -17.3890   -26.1610     7.9680 nu         1 O21      -0.951900
     34 C20        -18.2160   -25.1600     7.3950 ca         1 O21       0.209000
     35 C21        -19.5690   -25.4150     7.2010 ca         1 O21      -0.102000
     36 C22        -20.3980   -24.4510     6.6410 ca         1 O21      -0.122000
     37 C23        -19.8660   -23.2180     6.2820 ca         1 O21      -0.086000
     38 C24        -18.5150   -22.9510     6.4560 ca         1 O21      -0.124000
     39 C25        -17.6710   -23.9220     7.0000 ca         1 O21      -0.017000
     40 N6         -16.2900   -23.7370     7.1510 ns         1 O21      -0.147000
     41 C26        -15.6000   -22.5680     7.2840 c          1 O21       0.602300
     42 O4         -16.1060   -21.4550     7.1580 o          1 O21      -0.580100
     43 C27        -14.1570   -22.6960     7.6230 ce         1 O21      -0.277200
     44 C28        -13.6090   -23.6650     8.3510 c2         1 O21      -0.260000
     45 H1         -18.3810   -22.0200    12.5390 hc         1 O21       0.053700
     46 H2         -18.6280   -23.3840    11.4770 hc         1 O21       0.053700
     47 H3         -18.7880   -22.0270     9.5080 h1         1 O21       0.032200
     48 H4         -19.9320   -21.4250    10.7080 h1         1 O21       0.032200
     49 H5         -19.7730   -19.3460     9.1380 h1         1 O21       0.039450
     50 H6         -18.4970   -20.1990     8.2490 h1         1 O21       0.039450
     51 H7         -16.8770   -18.4430     8.7360 h1         1 O21       0.039950
     52 H8         -18.3300   -17.7240     8.0160 h1         1 O21       0.039950
     53 H10        -17.6520   -15.4370    10.7360 h1         1 O21       0.029700
     54 H11        -16.3680   -16.1920     9.7660 h1         1 O21       0.029700
     55 H12        -17.8430   -15.5890     8.9800 h1         1 O21       0.029700
     56 H13        -16.6000   -18.2260    11.2430 h1         1 O21       0.039950
     57 H14        -17.8780   -17.3740    12.1280 h1         1 O21       0.039950
     58 H15        -19.4940   -19.1430    11.6400 h1         1 O21       0.039450
     59 H16        -18.0340   -19.8370    12.3620 h1         1 O21       0.039450
     60 H18        -16.4300   -22.4510    10.2520 h1         1 O21       0.077200
     61 H19        -16.1740   -21.6240    11.7640 h1         1 O21       0.077200
     62 H20        -14.7620   -25.4190    13.0840 hn         1 O21       0.222000
     63 H21         -9.7430   -22.1400    17.6020 h1         1 O21       0.045867
     64 H22        -11.2300   -22.4900    18.5190 h1         1 O21       0.045867
     65 H23        -10.1660   -23.8260    17.9930 h1         1 O21       0.045867
     66 H24        -12.3180   -24.4830    18.3230 ha         1 O21       0.126000
     67 H25        -14.4100   -26.8320    19.9850 h1         1 O21       0.045867
     68 H26        -12.7900   -26.4690    19.3370 h1         1 O21       0.045867
     69 H27        -13.8630   -25.1410    19.8600 h1         1 O21       0.045867
     70 H28        -17.4150   -24.0560     9.5880 ha         1 O21       0.153000
     71 H29        -15.0910   -27.9420    11.2100 h5         1 O21       0.052100
     72 H30        -17.4920   -27.1030     7.6180 hn         1 O21       0.509000
     73 H31        -19.9640   -26.3750     7.5060 ha         1 O21       0.120000
     74 H32        -21.4500   -24.6600     6.4980 ha         1 O21       0.122000
     75 H33        -20.5040   -22.4540     5.8550 ha         1 O21       0.121000
     76 H34        -18.1010   -22.0010     6.1650 ha         1 O21       0.152000
     77 H35        -15.7560   -24.5890     7.2390 hn         1 O21       0.165000
     78 H36        -13.5660   -21.8460     7.3010 ha         1 O21       0.205000
     79 H38        -12.5570   -23.6360     8.6050 ha         1 O21       0.172500
     80 H39        -14.1750   -24.5030     8.7390 ha         1 O21       0.172500
@<TRIPOS>BOND
     1     1     2 1   
     2     1    10 1   
     3     1    45 1   
     4     1    46 1   
     5     2     9 1   
     6     2    47 1   
     7     2    48 1   
     8     3     4 1   
     9     3     9 1   
    10     3    49 1   
    11     3    50 1   
    12     4     5 1   
    13     4    51 1   
    14     4    52 1   
    15     5     6 1   
    16     5     7 1   
    17     6    53 1   
    18     6    54 1   
    19     6    55 1   
    20     7     8 1   
    21     7    56 1   
    22     7    57 1   
    23     8     9 1   
    24     8    58 1   
    25     8    59 1   
    26    10    11 1   
    27    10    60 1   
    28    10    61 1   
    29    11    12 1   
    30    11    27 1   
    31    12    13 2   
    32    12    14 1   
    33    14    15 1   
    34    14    62 1   
    35    15    16 ar  
    36    15    18 ar  
    37    16    17 1   
    38    16    24 ar  
    39    18    19 1   
    40    18    20 ar  
    41    20    21 1   
    42    20    23 ar  
    43    21    22 1   
    44    22    63 1   
    45    22    64 1   
    46    22    65 1   
    47    23    24 ar  
    48    23    66 1   
    49    24    25 1   
    50    25    26 1   
    51    26    67 1   
    52    26    68 1   
    53    26    69 1   
    54    27    28 ar  
    55    27    29 ar  
    56    28    32 ar  
    57    28    70 1   
    58    29    30 ar  
    59    30    31 ar  
    60    30    71 1   
    61    31    32 ar  
    62    32    33 1   
    63    33    34 1   
    64    33    72 1   
    65    34    35 ar  
    66    34    39 ar  
    67    35    36 ar  
    68    35    73 1   
    69    36    37 ar  
    70    36    74 1   
    71    37    38 ar  
    72    37    75 1   
    73    38    39 ar  
    74    38    76 1   
    75    39    40 1   
    76    40    41 1   
    77    40    77 1   
    78    41    42 2   
    79    41    43 1   
    80    43    44 2   
    81    43    78 1   
    82    44    79 1   
    83    44    80 1   
@<TRIPOS>SUBSTRUCTURE
     1 O21         1 TEMP              0 ****  ****    0 ROOT
