@<TRIPOS>MOLECULE
O22
   37    38     1     0     0
SMALL
bcc


@<TRIPOS>ATOM
      1 O2           5.7860    -1.2100     0.3550 o          1 O22      -0.608100
      2 C15          5.5200    -0.0760    -0.0250 c          1 O22       0.688700
      3 N4           6.4660     0.7820    -0.4430 nt         1 O22      -0.670000
      4 C12          4.1170     0.4250    -0.0340 ca         1 O22      -0.188600
      5 C11          3.7830     1.7790    -0.0640 ca         1 O22      -0.058000
      6 C10          2.4640     2.1840    -0.0540 ca         1 O22      -0.187500
      7 C13          3.0770    -0.4980     0.0220 ca         1 O22      -0.058000
      8 C14          1.7480    -0.1090     0.0200 ca         1 O22      -0.187500
      9 C9           1.4180     1.2500    -0.0200 ca         1 O22       0.202600
     10 N3           0.1360     1.7710    -0.0230 nu         1 O22      -0.740300
     11 C8          -1.0940     1.1770    -0.0360 ca         1 O22       0.782200
     12 C7          -2.2150     2.0020    -0.0590 ca         1 O22      -0.462300
     13 C6          -3.4850     1.4220    -0.0800 ca         1 O22       0.339600
     14 N2          -4.5930     2.1710    -0.1010 nv         1 O22      -0.861200
     15 C4          -3.5520     0.0060    -0.0770 ca         1 O22      -0.321300
     16 C5          -4.7880    -0.6690    -0.0950 cg         1 O22       0.272800
     17 N1          -5.8190    -1.1920    -0.1090 n1         1 O22      -0.400800
     18 N5          -1.1600    -0.1580    -0.0290 nb         1 O22      -0.857000
     19 C3          -2.3470    -0.7130    -0.0500 ca         1 O22       0.776600
     20 O1          -2.4600    -2.0300    -0.0460 os         1 O22      -0.429100
     21 C2          -1.2760    -2.8340     0.0350 c3         1 O22       0.149400
     22 C1          -1.7060    -4.2800     0.0440 c3         1 O22      -0.100100
     23 H1           7.4240     0.4730    -0.4900 hn         1 O22       0.310500
     24 H2           6.2480     1.6390    -0.9190 hn         1 O22       0.310500
     25 H3           4.5460     2.5470    -0.0720 ha         1 O22       0.140500
     26 H4           2.2390     3.2440    -0.0670 ha         1 O22       0.148500
     27 H5           3.3010    -1.5560     0.0580 ha         1 O22       0.140500
     28 H6           0.9760    -0.8570     0.0510 ha         1 O22       0.148500
     29 H7           0.1040     2.7800    -0.0390 hn         1 O22       0.440800
     30 H8          -2.1110     3.0790    -0.0620 ha         1 O22       0.141000
     31 H9          -4.5330     3.1740    -0.1050 hn         1 O22       0.443800
     32 H10         -5.5140     1.7700    -0.1170 hn         1 O22       0.443800
     33 H11         -0.6260    -2.6260    -0.8190 h1         1 O22       0.049700
     34 H12         -0.7240    -2.5830     0.9430 h1         1 O22       0.049700
     35 H13         -0.8210    -4.9120     0.1120 hc         1 O22       0.049700
     36 H14         -2.3450    -4.5040     0.8980 hc         1 O22       0.049700
     37 H15         -2.2380    -4.5460    -0.8700 hc         1 O22       0.049700
@<TRIPOS>BOND
     1     1     2 2   
     2     2     3 1   
     3     2     4 1   
     4     3    23 1   
     5     3    24 1   
     6     4     5 ar  
     7     4     7 ar  
     8     5     6 ar  
     9     5    25 1   
    10     6     9 ar  
    11     6    26 1   
    12     7     8 ar  
    13     7    27 1   
    14     8     9 ar  
    15     8    28 1   
    16     9    10 1   
    17    10    11 1   
    18    10    29 1   
    19    11    12 ar  
    20    11    18 ar  
    21    12    13 ar  
    22    12    30 1   
    23    13    14 1   
    24    13    15 ar  
    25    14    31 1   
    26    14    32 1   
    27    15    16 1   
    28    15    19 ar  
    29    16    17 3   
    30    18    19 ar  
    31    19    20 1   
    32    20    21 1   
    33    21    22 1   
    34    21    33 1   
    35    21    34 1   
    36    22    35 1   
    37    22    36 1   
    38    22    37 1   
@<TRIPOS>SUBSTRUCTURE
     1 O22         1 TEMP              0 ****  ****    0 ROOT
