@<TRIPOS>MOLECULE
O22
   37    38     1     0     0
SMALL
No Charge or Current Charge


@<TRIPOS>ATOM
      1 O2           5.8560    -1.0600     0.8050 o          1 O22      -0.608100
      2 C15          5.5390    -0.0570     0.1870 c          1 O22       0.621700
      3 N4           6.4980     0.6450    -0.4550 nt         1 O22      -0.603000
      4 C12          4.1120     0.4370     0.1080 ca         1 O22      -0.188600
      5 C11          3.7600     1.6060    -0.6070 ca         1 O22      -0.040000
      6 C10          2.4220     2.0350    -0.6570 ca         1 O22      -0.169500
      7 C13          3.0900    -0.2780     0.7710 ca         1 O22      -0.040000
      8 C14          1.7560     0.1580     0.7140 ca         1 O22      -0.169500
      9 C9           1.4090     1.3100    -0.0130 ca         1 O22       0.341000
     10 N3           0.1000     1.7920    -0.0780 nu         1 O22      -0.933900
     11 C8          -1.1400     1.2210    -0.0090 ca         1 O22       0.716900
     12 C7          -2.2620     2.0190     0.0970 ca         1 O22      -0.379000
     13 C6          -3.4980     1.4040     0.1300 ca         1 O22       0.478000
     14 N2          -4.5990     2.1970     0.2460 nv         1 O22      -1.110000
     15 C4          -3.5720     0.0180     0.0460 ca         1 O22      -0.256000
     16 C5          -4.8190    -0.6780     0.0790 cg         1 O22       0.362000
     17 N1          -5.8470    -1.2310     0.1030 n1         1 O22      -0.490000
     18 N5          -1.1760    -0.0950    -0.1080 nb         1 O22      -0.857000
     19 C3          -2.3770    -0.6930    -0.0740 ca         1 O22       0.711300
     20 O1          -2.4310    -2.0680    -0.1640 os         1 O22      -0.452300
     21 C2          -1.2340    -2.8580    -0.2840 c3         1 O22       0.172600
     22 C1          -1.6620    -4.3320    -0.3570 c3         1 O22      -0.100100
     23 H1           7.4530     0.3250    -0.4090 hn         1 O22       0.310500
     24 H2           6.2600     1.4770    -0.9720 hn         1 O22       0.310500
     25 H3           4.5100     2.1960    -1.1280 ha         1 O22       0.122500
     26 H4           2.1730     2.9350    -1.2120 ha         1 O22       0.130500
     27 H5           3.3280    -1.1760     1.3390 ha         1 O22       0.122500
     28 H6           0.9970    -0.4000     1.2510 ha         1 O22       0.130500
     29 H7           0.0370     2.7780    -0.3050 hn         1 O22       0.496000
     30 H8          -2.1700     3.0970     0.1610 ha         1 O22       0.123000
     31 H9          -4.4940     3.2000     0.1050 hn         1 O22       0.499000
     32 H10         -5.5210     1.8060     0.0590 hn         1 O22       0.499000
     33 H11         -0.6770    -2.5930    -1.1920 h1         1 O22       0.049700
     34 H12         -0.5770    -2.7110     0.5850 h1         1 O22       0.049700
     35 H13         -0.7810    -4.9780    -0.4490 hc         1 O22       0.049700
     36 H14         -2.2080    -4.6210     0.5480 hc         1 O22       0.049700
     37 H15         -2.3070    -4.5040    -1.2270 hc         1 O22       0.049700
@<TRIPOS>BOND
     1     1     2 2   
     2     2     3 1   
     3     2     4 1   
     4     3    23 1   
     5     3    24 1   
     6     4     5 ar  
     7     4     7 ar  
     8     5     6 ar  
     9     5    25 1   
    10     6     9 ar  
    11     6    26 1   
    12     7     8 ar  
    13     7    27 1   
    14     8     9 ar  
    15     8    28 1   
    16     9    10 1   
    17    10    11 1   
    18    10    29 1   
    19    11    12 ar  
    20    11    18 ar  
    21    12    13 ar  
    22    12    30 1   
    23    13    14 1   
    24    13    15 ar  
    25    14    31 1   
    26    14    32 1   
    27    15    16 1   
    28    15    19 ar  
    29    16    17 3   
    30    18    19 ar  
    31    19    20 1   
    32    20    21 1   
    33    21    22 1   
    34    21    33 1   
    35    21    34 1   
    36    22    35 1   
    37    22    36 1   
    38    22    37 1   
@<TRIPOS>SUBSTRUCTURE
     1 O22         1 TEMP              0 ****  ****    0 ROOT
