@<TRIPOS>MOLECULE
O23
   47    51     1     0     0
SMALL
abcg2


@<TRIPOS>ATOM
      1 O           -6.3590    -1.5250     1.2660 o          1 O23      -0.588100
      2 C           -5.9430    -0.6700     0.4990 c          1 O23       0.612700
      3 N           -6.7330     0.2810    -0.0350 ns         1 O23      -0.481900
      4 C1          -8.1280     0.3560     0.2480 cx         1 O23       0.044700
      5 C3          -8.5700     0.8610     1.5830 cx         1 O23      -0.131900
      6 C2          -8.7350     1.7160     0.3640 cx         1 O23      -0.131900
      7 C4          -4.5050    -0.6260     0.0930 ca         1 O23      -0.147600
      8 C9          -3.7730    -1.8100     0.1140 ca         1 O23      -0.071500
      9 C8          -2.4360    -1.8180    -0.2390 ca         1 O23      -0.110000
     10 C7          -1.7900    -0.6380    -0.6140 ca         1 O23       0.004200
     11 C6          -2.5230     0.5500    -0.6250 ca         1 O23      -0.110000
     12 C5          -3.8630     0.5540    -0.2740 ca         1 O23      -0.071500
     13 C10         -0.3910    -0.6830    -1.0210 cc         1 O23      -0.122300
     14 N2           0.5630     0.2390    -0.6810 na         1 O23       0.181100
     15 C13          0.5390     1.3400     0.1510 cc         1 O23      -0.234000
     16 C14          1.6950     2.0250     0.2940 cd         1 O23       0.359900
     17 N3           2.8650     1.7060    -0.3170 nd         1 O23      -0.777000
     18 C15          2.8910     0.6550    -1.0950 cc         1 O23       0.675900
     19 C12          1.7210    -0.1470    -1.2940 cc         1 O23      -0.172000
     20 N1           1.5640    -1.2500    -1.9980 nd         1 O23      -0.278600
     21 C11          0.2710    -1.5880    -1.8290 cd         1 O23      -0.028400
     22 N4           4.0150     0.3060    -1.7440 nu         1 O23      -0.909100
     23 C16          5.2690     0.9880    -1.5340 c3         1 O23       0.303100
     24 C17          6.0060     0.5490    -0.3040 cc         1 O23      -0.256300
     25 S            5.4310     0.8870     1.2880 ss         1 O23       0.252000
     26 C20          6.7670     0.0850     2.0060 cc         1 O23      -0.251000
     27 C19          7.6150    -0.4180     1.0690 cd         1 O23      -0.137000
     28 C18          7.1750    -0.1500    -0.2560 cd         1 O23      -0.125000
     29 H1          -6.3820     0.8340    -0.8000 hn         1 O23       0.318500
     30 H2          -8.7350    -0.4190    -0.2120 h1         1 O23       0.085700
     31 H3          -9.4490     0.4090     2.0240 hc         1 O23       0.077950
     32 H4          -7.8020     1.1390     2.2930 hc         1 O23       0.077950
     33 H5          -8.0780     2.5700     0.2570 hc         1 O23       0.077950
     34 H6          -9.7270     1.8590    -0.0420 hc         1 O23       0.077950
     35 H7          -4.2500    -2.7350     0.4090 ha         1 O23       0.126500
     36 H8          -1.8810    -2.7470    -0.2110 ha         1 O23       0.122500
     37 H9          -2.0610     1.4790    -0.9310 ha         1 O23       0.122500
     38 H10         -4.3940     1.4980    -0.2760 ha         1 O23       0.126500
     39 H11         -0.3800     1.5880     0.6550 h4         1 O23       0.158000
     40 H12          1.7140     2.8890     0.9440 h4         1 O23       0.031100
     41 H13         -0.1610    -2.4540    -2.3070 h4         1 O23       0.231000
     42 H14          4.0290    -0.5870    -2.2110 hn         1 O23       0.519000
     43 H15          5.9020     0.7910    -2.3980 h1         1 O23       0.070200
     44 H16          5.0830     2.0620    -1.5120 h1         1 O23       0.070200
     45 H17          6.8540     0.0230     3.0800 h4         1 O23       0.148000
     46 H18          8.5190    -0.9600     1.3080 ha         1 O23       0.133000
     47 H19          7.7080    -0.4610    -1.1450 ha         1 O23       0.129000
@<TRIPOS>BOND
     1     1     2 2   
     2     2     3 1   
     3     2     7 1   
     4     3     4 1   
     5     3    29 1   
     6     4     5 1   
     7     4     6 1   
     8     4    30 1   
     9     5     6 1   
    10     5    31 1   
    11     5    32 1   
    12     6    33 1   
    13     6    34 1   
    14     7     8 ar  
    15     7    12 ar  
    16     8     9 ar  
    17     8    35 1   
    18     9    10 ar  
    19     9    36 1   
    20    10    11 ar  
    21    10    13 1   
    22    11    12 ar  
    23    11    37 1   
    24    12    38 1   
    25    13    14 1   
    26    13    21 2   
    27    14    15 1   
    28    14    19 1   
    29    15    16 2   
    30    15    39 1   
    31    16    17 1   
    32    16    40 1   
    33    17    18 2   
    34    18    19 1   
    35    18    22 1   
    36    19    20 2   
    37    20    21 1   
    38    21    41 1   
    39    22    23 1   
    40    22    42 1   
    41    23    24 1   
    42    23    43 1   
    43    23    44 1   
    44    24    25 1   
    45    24    28 2   
    46    25    26 1   
    47    26    27 2   
    48    26    45 1   
    49    27    28 1   
    50    27    46 1   
    51    28    47 1   
@<TRIPOS>SUBSTRUCTURE
     1 O23         1 TEMP              0 ****  ****    0 ROOT
