@<TRIPOS>MOLECULE
O23
   47    51     1     0     0
SMALL
No Charge or Current Charge


@<TRIPOS>ATOM
      1 O           -6.7270    -1.5870     1.1330 o          1 O23      -0.588100
      2 C           -6.1530    -0.7780     0.4160 c          1 O23       0.612700
      3 N           -6.8620     0.0960    -0.3830 ns         1 O23      -0.481900
      4 C1          -8.2970     0.1520    -0.4550 cx         1 O23       0.044700
      5 C3          -8.9980     1.2040     0.3680 cx         1 O23      -0.131900
      6 C2          -8.9170     1.3490    -1.1320 cx         1 O23      -0.131900
      7 C4          -4.6400    -0.6820     0.3580 ca         1 O23      -0.147600
      8 C9          -3.8580    -1.5520     1.1510 ca         1 O23      -0.071500
      9 C8          -2.4550    -1.4900     1.1220 ca         1 O23      -0.110000
     10 C7          -1.7950    -0.5530     0.3060 ca         1 O23       0.004200
     11 C6          -2.5660     0.3100    -0.4940 ca         1 O23      -0.110000
     12 C5          -3.9710     0.2520    -0.4700 ca         1 O23      -0.071500
     13 C10         -0.3330    -0.5030     0.2780 cc         1 O23      -0.122300
     14 N2           0.5380     0.5280     0.0620 na         1 O23       0.181100
     15 C13          0.2290     1.8620     0.2830 cc         1 O23      -0.234000
     16 C14          1.2980     2.7590     0.1810 cd         1 O23       0.359900
     17 N3           2.6400     2.3660     0.0200 nd         1 O23      -0.777000
     18 C15          2.8220     1.0650     0.0280 cc         1 O23       0.675900
     19 C12          1.8050     0.0860     0.0970 cc         1 O23      -0.172000
     20 N1           1.8200    -1.2420     0.1760 nd         1 O23      -0.278600
     21 C11          0.4800    -1.6190     0.2870 cd         1 O23      -0.028400
     22 N4           4.0970     0.6080    -0.0140 nu         1 O23      -0.909100
     23 C16          5.2970     1.3740    -0.3320 c3         1 O23       0.303100
     24 C17          6.4290     0.4080    -0.5120 cc         1 O23      -0.256300
     25 S            7.7470     0.3290     0.6560 ss         1 O23       0.252000
     26 C20          8.5370    -0.9420    -0.2740 cc         1 O23      -0.251000
     27 C19          7.8140    -1.2540    -1.3970 cd         1 O23      -0.137000
     28 C18          6.6240    -0.4910    -1.5330 cd         1 O23      -0.125000
     29 H1          -6.3160     0.7290    -0.9520 hn         1 O23       0.318500
     30 H2          -8.7830    -0.8170    -0.5790 h1         1 O23       0.085700
     31 H3          -9.9610     0.9440     0.8020 hc         1 O23       0.077950
     32 H4          -8.3880     1.8670     0.9770 hc         1 O23       0.077950
     33 H5          -8.2570     2.1150    -1.5320 hc         1 O23       0.077950
     34 H6          -9.8260     1.1880    -1.7070 hc         1 O23       0.077950
     35 H7          -4.3380    -2.2830     1.7990 ha         1 O23       0.126500
     36 H8          -1.8800    -2.1670     1.7490 ha         1 O23       0.122500
     37 H9          -2.0780     1.0220    -1.1550 ha         1 O23       0.122500
     38 H10         -4.5210     0.9400    -1.1080 ha         1 O23       0.126500
     39 H11         -0.7990     2.1400     0.4600 h4         1 O23       0.158000
     40 H12          1.1340     3.8270     0.2560 h4         1 O23       0.031100
     41 H13          0.1850    -2.6620     0.3660 h4         1 O23       0.231000
     42 H14          4.1510    -0.4030    -0.0810 hn         1 O23       0.519000
     43 H15          5.1580     1.9510    -1.2580 h1         1 O23       0.070200
     44 H16          5.5310     2.0820     0.4770 h1         1 O23       0.070200
     45 H17          9.4720    -1.3590     0.0790 h4         1 O23       0.148000
     46 H18          8.1220    -2.0110    -2.1130 ha         1 O23       0.133000
     47 H19          5.9350    -0.6070    -2.3660 ha         1 O23       0.129000
@<TRIPOS>BOND
     1     1     2 2   
     2     2     3 1   
     3     2     7 1   
     4     3     4 1   
     5     3    29 1   
     6     4     5 1   
     7     4     6 1   
     8     4    30 1   
     9     5     6 1   
    10     5    31 1   
    11     5    32 1   
    12     6    33 1   
    13     6    34 1   
    14     7     8 ar  
    15     7    12 ar  
    16     8     9 ar  
    17     8    35 1   
    18     9    10 ar  
    19     9    36 1   
    20    10    11 ar  
    21    10    13 1   
    22    11    12 ar  
    23    11    37 1   
    24    12    38 1   
    25    13    14 1   
    26    13    21 2   
    27    14    15 1   
    28    14    19 1   
    29    15    16 2   
    30    15    39 1   
    31    16    17 1   
    32    16    40 1   
    33    17    18 2   
    34    18    19 1   
    35    18    22 1   
    36    19    20 2   
    37    20    21 1   
    38    21    41 1   
    39    22    23 1   
    40    22    42 1   
    41    23    24 1   
    42    23    43 1   
    43    23    44 1   
    44    24    25 1   
    45    24    28 2   
    46    25    26 1   
    47    26    27 2   
    48    26    45 1   
    49    27    28 1   
    50    27    46 1   
    51    28    47 1   
@<TRIPOS>SUBSTRUCTURE
     1 O23         1 TEMP              0 ****  ****    0 ROOT
