@<TRIPOS>MOLECULE
O25
   51    53     1     0     0
SMALL
No Charge or Current Charge


@<TRIPOS>ATOM
      1 C1           2.3100    -3.3070    17.9310 cc         1 O25      -0.145300
      2 C2           2.2840    -4.8030    18.0990 c3         1 O25       0.234100
      3 N5           3.0480    -5.4320    17.0100 n7         1 O25      -0.857400
      4 C10          3.0770    -6.9030    17.0330 c3         1 O25       0.157800
      5 C13          3.9130    -7.4310    15.8570 c3         1 O25      -0.092100
      6 C14          1.4960    -2.5380    17.1520 cd         1 O25      -0.150000
      7 N16          1.9250    -1.2260    17.3560 na         1 O25       0.139800
      8 C17          1.3760    -0.0180    16.7240 c3         1 O25       0.010600
      9 C20          0.0910     0.4980    17.3800 c          1 O25       0.579100
     10 N21         -0.2960     1.7550    16.9500 ns         1 O25      -0.386100
     11 C23         -1.3980     2.5220    17.3230 cc         1 O25      -0.002400
     12 C24         -1.6350     3.7840    16.7890 cd         1 O25      -0.253600
     13 C25         -0.6830     4.3850    15.7840 c          1 O25       0.648700
     14 N26         -0.9180     5.6410    15.3740 nt         1 O25      -0.588000
     15 O29          0.2970     3.8130    15.3300 o          1 O25      -0.672100
     16 C30         -2.8480     4.3660    17.3320 cd         1 O25      -0.052300
     17 C31         -3.4330     5.7260    16.9560 c6         1 O25      -0.017100
     18 C34         -4.8690     5.9420    17.4970 c6         1 O25      -0.072400
     19 C37         -5.0000     5.4460    18.9520 c6         1 O25      -0.071400
     20 C40         -4.7260     3.9280    19.0260 c6         1 O25       0.000900
     21 C43         -3.4640     3.5700    18.2750 cc         1 O25      -0.241300
     22 S44         -2.6230     2.0520    18.5030 ss         1 O25       0.294000
     23 O45         -0.5450    -0.1450    18.2060 o          1 O25      -0.559100
     24 N46          2.9910    -1.1440    18.2330 nd         1 O25      -0.463800
     25 C47          3.2030    -2.4080    18.5670 cc         1 O25       0.174300
     26 C48          4.2920    -2.8450    19.5430 c3         1 O25       0.285700
     27 F49          5.1270    -3.7590    18.9950 f          1 O25      -0.105667
     28 F50          3.7670    -3.4000    20.6600 f          1 O25      -0.105667
     29 F51          5.0650    -1.8090    19.9500 f          1 O25      -0.105667
     30 H2           2.6970    -5.0840    19.0770 h1         1 O25       0.043200
     31 H2A          1.2380    -5.1400    18.0780 h1         1 O25       0.043200
     32 HN5          2.6270    -5.1320    16.1230 hn         1 O25       0.405000
     33 H10          3.5160    -7.2630    17.9740 h1         1 O25       0.028200
     34 H10A         2.0590    -7.3090    16.9600 h1         1 O25       0.028200
     35 H13          3.9420    -8.5260    15.8750 hc         1 O25       0.039367
     36 H13A         3.4830    -7.1150    14.8990 hc         1 O25       0.039367
     37 H13B         4.9440    -7.0610    15.9160 hc         1 O25       0.039367
     38 H14          0.6740    -2.8020    16.4970 h4         1 O25       0.159000
     39 H17          2.1270     0.7790    16.7660 h1         1 O25       0.095200
     40 H17A         1.1590    -0.2300    15.6710 h1         1 O25       0.095200
     41 HN21         0.3190     2.1770    16.2550 hn         1 O25       0.379500
     42 HN26        -0.2890     6.0640    14.7090 hn         1 O25       0.320000
     43 HN2A        -1.6980     6.1540    15.7450 hn         1 O25       0.320000
     44 H31         -2.7860     6.5240    17.3460 hc         1 O25       0.046700
     45 H31A        -3.4730     5.8460    15.8650 hc         1 O25       0.046700
     46 H34         -5.1350     7.0060    17.4330 hc         1 O25       0.045200
     47 H34A        -5.5860     5.4040    16.8630 hc         1 O25       0.045200
     48 H37         -4.2890     5.9860    19.5940 hc         1 O25       0.045700
     49 H37A        -6.0040     5.6650    19.3390 hc         1 O25       0.045700
     50 H40         -4.6590     3.6190    20.0780 hc         1 O25       0.052700
     51 H40A        -5.5810     3.3840    18.6010 hc         1 O25       0.052700
@<TRIPOS>BOND
     1     1     2 1   
     2     1     6 2   
     3     1    25 1   
     4     2     3 1   
     5     2    30 1   
     6     2    31 1   
     7     3     4 1   
     8     3    32 1   
     9     4     5 1   
    10     4    33 1   
    11     4    34 1   
    12     5    35 1   
    13     5    36 1   
    14     5    37 1   
    15     6     7 1   
    16     6    38 1   
    17     7     8 1   
    18     7    24 1   
    19     8     9 1   
    20     8    39 1   
    21     8    40 1   
    22     9    10 1   
    23     9    23 2   
    24    10    11 1   
    25    10    41 1   
    26    11    12 2   
    27    11    22 1   
    28    12    13 1   
    29    12    16 1   
    30    13    14 1   
    31    13    15 2   
    32    14    42 1   
    33    14    43 1   
    34    16    17 1   
    35    16    21 2   
    36    17    18 1   
    37    17    44 1   
    38    17    45 1   
    39    18    19 1   
    40    18    46 1   
    41    18    47 1   
    42    19    20 1   
    43    19    48 1   
    44    19    49 1   
    45    20    21 1   
    46    20    50 1   
    47    20    51 1   
    48    21    22 1   
    49    24    25 2   
    50    25    26 1   
    51    26    27 1   
    52    26    28 1   
    53    26    29 1   
@<TRIPOS>SUBSTRUCTURE
     1 O25         1 TEMP              0 ****  ****    0 ROOT
