@<TRIPOS>MOLECULE
O25
   51    53     1     0     0
SMALL
abcg2


@<TRIPOS>ATOM
      1 C1           2.0770    -3.2540    17.5680 cc         1 O25      -0.145300
      2 C2           1.9170    -4.7360    17.6740 c3         1 O25       0.234100
      3 N5           3.1190    -5.4440    17.2320 n7         1 O25      -0.857400
      4 C10          2.9580    -6.8970    17.2740 c3         1 O25       0.157800
      5 C13          4.1920    -7.6040    16.7370 c3         1 O25      -0.092100
      6 C14          1.4180    -2.4160    16.6930 cd         1 O25      -0.150000
      7 N16          1.8770    -1.1590    16.9070 na         1 O25       0.139800
      8 C17          1.3880     0.0600    16.3180 c3         1 O25       0.010600
      9 C20          0.2330     0.6550    17.1230 c          1 O25       0.579100
     10 N21         -0.1710     1.8630    16.6680 ns         1 O25      -0.386100
     11 C23         -1.2170     2.6140    17.1680 cc         1 O25      -0.002400
     12 C24         -1.5910     3.8600    16.6870 cd         1 O25      -0.253600
     13 C25         -0.8210     4.4930    15.5960 c          1 O25       0.648700
     14 N26         -1.0100     5.8020    15.3480 nt         1 O25      -0.588000
     15 O29         -0.0030     3.8430    14.9150 o          1 O25      -0.672100
     16 C30         -2.7430     4.3770    17.3960 cd         1 O25      -0.052300
     17 C31         -3.4810     5.6620    17.1130 c6         1 O25      -0.017100
     18 C34         -4.8590     5.6920    17.7820 c6         1 O25      -0.072400
     19 C37         -4.7900     5.2130    19.2310 c6         1 O25      -0.071400
     20 C40         -4.3400     3.7520    19.2910 c6         1 O25       0.000900
     21 C43         -3.1690     3.5360    18.3800 cc         1 O25      -0.241300
     22 S44         -2.2070     2.0930    18.4830 ss         1 O25       0.294000
     23 O45         -0.2800     0.0820    18.0740 o          1 O25      -0.559100
     24 N46          2.7910    -1.1130    17.8850 nd         1 O25      -0.463800
     25 C47          2.9230    -2.3740    18.2850 cc         1 O25       0.174300
     26 C48          3.9120    -2.6990    19.3530 c3         1 O25       0.285700
     27 F49          5.0920    -3.1470    18.8550 f          1 O25      -0.105667
     28 F50          3.4560    -3.6680    20.1780 f          1 O25      -0.105667
     29 F51          4.2070    -1.6310    20.1200 f          1 O25      -0.105667
     30 H2           1.7270    -5.0200    18.7120 h1         1 O25       0.043200
     31 H2A          1.0260    -5.0300    17.0990 h1         1 O25       0.043200
     32 HN5          3.3250    -5.1630    16.2770 hn         1 O25       0.405000
     33 H10          2.7850    -7.1840    18.3160 h1         1 O25       0.028200
     34 H10A         2.0700    -7.2220    16.7070 h1         1 O25       0.028200
     35 H13          4.0650    -8.6870    16.7850 hc         1 O25       0.039367
     36 H13A         4.3720    -7.3330    15.6930 hc         1 O25       0.039367
     37 H13B         5.0770    -7.3340    17.3160 hc         1 O25       0.039367
     38 H14          0.6670    -2.6240    15.9490 h4         1 O25       0.159000
     39 H17          2.2080     0.7740    16.2580 h1         1 O25       0.095200
     40 H17A         1.0470    -0.1500    15.3030 h1         1 O25       0.095200
     41 HN21         0.2640     2.3030    15.8520 hn         1 O25       0.379500
     42 HN26        -0.4440     6.2350    14.6340 hn         1 O25       0.320000
     43 HN2A        -1.5680     6.3950    15.9350 hn         1 O25       0.320000
     44 H31         -2.8930     6.5150    17.4770 hc         1 O25       0.046700
     45 H31A        -3.6000     5.7980    16.0370 hc         1 O25       0.046700
     46 H34         -5.2610     6.7060    17.7320 hc         1 O25       0.045200
     47 H34A        -5.5440     5.0460    17.2240 hc         1 O25       0.045200
     48 H37         -4.0830     5.8370    19.7860 hc         1 O25       0.045700
     49 H37A        -5.7630     5.3170    19.7160 hc         1 O25       0.045700
     50 H40         -4.0820     3.4710    20.3150 hc         1 O25       0.052700
     51 H40A        -5.1670     3.0990    18.9910 hc         1 O25       0.052700
@<TRIPOS>BOND
     1     1     2 1   
     2     1     6 2   
     3     1    25 1   
     4     2     3 1   
     5     2    30 1   
     6     2    31 1   
     7     3     4 1   
     8     3    32 1   
     9     4     5 1   
    10     4    33 1   
    11     4    34 1   
    12     5    35 1   
    13     5    36 1   
    14     5    37 1   
    15     6     7 1   
    16     6    38 1   
    17     7     8 1   
    18     7    24 1   
    19     8     9 1   
    20     8    39 1   
    21     8    40 1   
    22     9    10 1   
    23     9    23 2   
    24    10    11 1   
    25    10    41 1   
    26    11    12 2   
    27    11    22 1   
    28    12    13 1   
    29    12    16 1   
    30    13    14 1   
    31    13    15 2   
    32    14    42 1   
    33    14    43 1   
    34    16    17 1   
    35    16    21 2   
    36    17    18 1   
    37    17    44 1   
    38    17    45 1   
    39    18    19 1   
    40    18    46 1   
    41    18    47 1   
    42    19    20 1   
    43    19    48 1   
    44    19    49 1   
    45    20    21 1   
    46    20    50 1   
    47    20    51 1   
    48    21    22 1   
    49    24    25 2   
    50    25    26 1   
    51    26    27 1   
    52    26    28 1   
    53    26    29 1   
@<TRIPOS>SUBSTRUCTURE
     1 O25         1 TEMP              0 ****  ****    0 ROOT
