@<TRIPOS>MOLECULE
O26
   57    59     1     0     0
SMALL
No Charge or Current Charge


@<TRIPOS>ATOM
      1 C1           1.8350    -3.3720    16.4430 cc         1 O26      -0.205300
      2 C2           2.5680    -2.1630    16.9140 cc         1 O26       0.284300
      3 C3           3.5430    -2.0610    18.0950 c3         1 O26      -0.075300
      4 C4           4.2900    -0.6930    18.0730 c3         1 O26      -0.080767
      5 C5           2.7590    -2.1500    19.4310 c3         1 O26      -0.080767
      6 C6           4.6240    -3.1760    18.0400 c3         1 O26      -0.080767
      7 N7           2.2190    -1.1390    16.1450 nd         1 O26      -0.524800
      8 N8           1.3050    -1.6570    15.2060 na         1 O26       0.117800
      9 C9           0.7090    -0.7660    14.2070 c3         1 O26       0.022600
     10 C10         -0.5880    -0.1390    14.7120 c          1 O26       0.579100
     11 O11         -1.6850    -0.5150    14.3190 o          1 O26      -0.560100
     12 N12         -0.4210     0.8760    15.6380 ns         1 O26      -0.385100
     13 C13         -1.3810     1.6410    16.2980 cc         1 O26       0.002600
     14 S14         -3.1280     1.4630    16.1200 ss         1 O26       0.293000
     15 C15         -3.4040     2.7580    17.2630 cc         1 O26      -0.246300
     16 C16         -4.7880     3.2250    17.6540 c6         1 O26       0.001900
     17 C17         -4.7330     4.6200    18.3150 c6         1 O26      -0.071400
     18 C18         -3.6360     4.6540    19.3990 c6         1 O26      -0.072400
     19 C19         -2.2340     4.3980    18.7910 c6         1 O26      -0.016100
     20 C20         -2.2240     3.2730    17.7570 cd         1 O26      -0.051300
     21 C21         -1.0410     2.6550    17.1870 cd         1 O26      -0.258600
     22 C22          0.4040     2.9990    17.4450 c          1 O26       0.648700
     23 O23          1.3550     2.4120    16.9530 o          1 O26      -0.670100
     24 N24          0.6640     4.0360    18.2570 nt         1 O26      -0.592000
     25 C25          1.0350    -3.0300    15.3400 cd         1 O26      -0.118000
     26 C26          1.9260    -4.7910    17.0260 c3         1 O26       0.239100
     27 N27          0.7940    -5.6390    16.5910 n7         1 O26      -0.860400
     28 C28          0.8060    -7.0150    17.1210 c3         1 O26       0.142100
     29 H4           4.9950    -0.6130    18.9090 hc         1 O26       0.036811
     30 H4A          4.8580    -0.5720    17.1420 hc         1 O26       0.036811
     31 H4B          3.5870     0.1460    18.1540 hc         1 O26       0.036811
     32 H5           3.4340    -2.0440    20.2900 hc         1 O26       0.036811
     33 H5A          2.0070    -1.3550    19.4930 hc         1 O26       0.036811
     34 H5B          2.2400    -3.1080    19.5340 hc         1 O26       0.036811
     35 H6           5.4120    -2.9930    18.7800 hc         1 O26       0.036811
     36 H6A          4.2080    -4.1630    18.2600 hc         1 O26       0.036811
     37 H6B          5.0940    -3.2120    17.0490 hc         1 O26       0.036811
     38 H9           1.4160     0.0330    13.9580 h1         1 O26       0.087700
     39 H9A          0.4890    -1.3350    13.2980 h1         1 O26       0.087700
     40 HN12         0.5500     1.0730    15.8790 hn         1 O26       0.378500
     41 H16         -5.4530     3.2600    16.7800 hc         1 O26       0.052200
     42 H16A        -5.2410     2.5090    18.3540 hc         1 O26       0.052200
     43 H17         -4.5270     5.3860    17.5540 hc         1 O26       0.044200
     44 H17A        -5.7100     4.8650    18.7540 hc         1 O26       0.044200
     45 H18         -3.6460     5.6220    19.9190 hc         1 O26       0.045200
     46 H18A        -3.8520     3.8910    20.1590 hc         1 O26       0.045200
     47 H19         -1.8780     5.3270    18.3250 hc         1 O26       0.045200
     48 H19A        -1.5540     4.1720    19.6220 hc         1 O26       0.045200
     49 HN24         1.6240     4.2880    18.4350 hn         1 O26       0.319000
     50 HN2A        -0.0920     4.5610    18.6600 hn         1 O26       0.319000
     51 H25          0.3640    -3.5970    14.7060 h4         1 O26       0.157000
     52 H26          2.8750    -5.2400    16.7000 h1         1 O26       0.033700
     53 H26A         1.9430    -4.7330    18.1210 h1         1 O26       0.033700
     54 HN27        -0.0700    -5.1810    16.9050 hn         1 O26       0.413000
     55 H28         -0.0630    -7.5770    16.7530 h1         1 O26       0.028033
     56 H28A         1.7140    -7.5470    16.8070 h1         1 O26       0.028033
     57 H28B         0.7700    -7.0120    18.2190 h1         1 O26       0.028033
@<TRIPOS>BOND
     1     1     2 1   
     2     1    25 2   
     3     1    26 1   
     4     2     3 1   
     5     2     7 2   
     6     3     4 1   
     7     3     5 1   
     8     3     6 1   
     9     4    29 1   
    10     4    30 1   
    11     4    31 1   
    12     5    32 1   
    13     5    33 1   
    14     5    34 1   
    15     6    35 1   
    16     6    36 1   
    17     6    37 1   
    18     7     8 1   
    19     8     9 1   
    20     8    25 1   
    21     9    10 1   
    22     9    38 1   
    23     9    39 1   
    24    10    11 2   
    25    10    12 1   
    26    12    13 1   
    27    12    40 1   
    28    13    14 1   
    29    13    21 2   
    30    14    15 1   
    31    15    16 1   
    32    15    20 2   
    33    16    17 1   
    34    16    41 1   
    35    16    42 1   
    36    17    18 1   
    37    17    43 1   
    38    17    44 1   
    39    18    19 1   
    40    18    45 1   
    41    18    46 1   
    42    19    20 1   
    43    19    47 1   
    44    19    48 1   
    45    20    21 1   
    46    21    22 1   
    47    22    23 2   
    48    22    24 1   
    49    24    49 1   
    50    24    50 1   
    51    25    51 1   
    52    26    27 1   
    53    26    52 1   
    54    26    53 1   
    55    27    28 1   
    56    27    54 1   
    57    28    55 1   
    58    28    56 1   
    59    28    57 1   
@<TRIPOS>SUBSTRUCTURE
     1 O26         1 TEMP              0 ****  ****    0 ROOT
