@<TRIPOS>MOLECULE
O26
   57    59     1     0     0
SMALL
abcg2


@<TRIPOS>ATOM
      1 C1           2.2220    -3.5530    16.2780 cc         1 O26      -0.205300
      2 C2           2.8490    -2.8040    17.3170 cc         1 O26       0.284300
      3 C3           3.6670    -3.2960    18.4960 c3         1 O26      -0.075300
      4 C4           4.0190    -2.1360    19.4380 c3         1 O26      -0.080767
      5 C5           2.8740    -4.3450    19.2980 c3         1 O26      -0.080767
      6 C6           4.9780    -3.9210    17.9820 c3         1 O26      -0.080767
      7 N7           2.6690    -1.4970    17.1160 nd         1 O26      -0.524800
      8 N8           1.9560    -1.3910    15.9730 na         1 O26       0.117800
      9 C9           1.4780    -0.1060    15.5450 c3         1 O26       0.022600
     10 C10          0.2090     0.3070    16.2890 c          1 O26       0.579100
     11 O11         -0.5610    -0.5040    16.7860 o          1 O26      -0.560100
     12 N12          0.0020     1.6450    16.3120 ns         1 O26      -0.385100
     13 C13         -1.0910     2.2900    16.8550 cc         1 O26       0.002600
     14 S14         -2.3690     1.4540    17.6610 ss         1 O26       0.293000
     15 C15         -3.1910     2.9490    17.9880 cc         1 O26      -0.246300
     16 C16         -4.4870     2.9700    18.7420 c6         1 O26       0.001900
     17 C17         -5.1680     4.3310    18.5790 c6         1 O26      -0.071400
     18 C18         -4.1590     5.4590    18.7830 c6         1 O26      -0.072400
     19 C19         -3.0530     5.4260    17.7230 c6         1 O26      -0.016100
     20 C20         -2.5200     4.0310    17.5000 cd         1 O26      -0.051300
     21 C21         -1.2960     3.6620    16.8200 cd         1 O26      -0.258600
     22 C22         -0.3300     4.5340    16.1210 c          1 O26       0.648700
     23 O23          0.7860     4.1130    15.7590 o          1 O26      -0.670100
     24 N24         -0.6780     5.8100    15.8640 nt         1 O26      -0.592000
     25 C25          1.6620    -2.6000    15.4510 cd         1 O26      -0.118000
     26 C26          2.1020    -5.0320    16.0820 c3         1 O26       0.239100
     27 N27          0.8190    -5.5450    16.5850 n7         1 O26      -0.860400
     28 C28          0.7720    -7.0040    16.5740 c3         1 O26       0.142100
     29 H4           4.6030    -2.5200    20.2770 hc         1 O26       0.036811
     30 H4A          4.6100    -1.3740    18.9290 hc         1 O26       0.036811
     31 H4B          3.1200    -1.6590    19.8330 hc         1 O26       0.036811
     32 H5           3.4530    -4.6530    20.1710 hc         1 O26       0.036811
     33 H5A          1.9250    -3.9320    19.6450 hc         1 O26       0.036811
     34 H5B          2.6640    -5.2370    18.7090 hc         1 O26       0.036811
     35 H6           5.5810    -4.2690    18.8240 hc         1 O26       0.036811
     36 H6A          4.7890    -4.7720    17.3270 hc         1 O26       0.036811
     37 H6B          5.5610    -3.1850    17.4240 hc         1 O26       0.036811
     38 H9           2.2630     0.6360    15.6900 h1         1 O26       0.087700
     39 H9A          1.2460    -0.1530    14.4800 h1         1 O26       0.087700
     40 HN12         0.6850     2.3010    15.9260 hn         1 O26       0.378500
     41 H16         -5.1430     2.1690    18.3930 hc         1 O26       0.052200
     42 H16A        -4.3010     2.7760    19.8050 hc         1 O26       0.052200
     43 H17         -5.6000     4.4060    17.5760 hc         1 O26       0.044200
     44 H17A        -5.9900     4.4180    19.2930 hc         1 O26       0.044200
     45 H18         -4.6560     6.4310    18.7510 hc         1 O26       0.045200
     46 H18A        -3.7090     5.3610    19.7760 hc         1 O26       0.045200
     47 H19         -3.4530     5.8220    16.7810 hc         1 O26       0.045200
     48 H19A        -2.2440     6.0920    18.0290 hc         1 O26       0.045200
     49 HN24        -0.0300     6.3820    15.3460 hn         1 O26       0.319000
     50 HN2A        -1.5990     6.1710    16.0320 hn         1 O26       0.319000
     51 H25          1.0870    -2.7000    14.5450 h4         1 O26       0.157000
     52 H26          2.1520    -5.2660    15.0150 h1         1 O26       0.033700
     53 H26A         2.9500    -5.5490    16.5490 h1         1 O26       0.033700
     54 HN27         0.6890    -5.2130    17.5350 hn         1 O26       0.413000
     55 H28         -0.1690    -7.3450    17.0090 h1         1 O26       0.028033
     56 H28A         0.8200    -7.3620    15.5430 h1         1 O26       0.028033
     57 H28B         1.6010    -7.4700    17.1280 h1         1 O26       0.028033
@<TRIPOS>BOND
     1     1     2 1   
     2     1    25 2   
     3     1    26 1   
     4     2     3 1   
     5     2     7 2   
     6     3     4 1   
     7     3     5 1   
     8     3     6 1   
     9     4    29 1   
    10     4    30 1   
    11     4    31 1   
    12     5    32 1   
    13     5    33 1   
    14     5    34 1   
    15     6    35 1   
    16     6    36 1   
    17     6    37 1   
    18     7     8 1   
    19     8     9 1   
    20     8    25 1   
    21     9    10 1   
    22     9    38 1   
    23     9    39 1   
    24    10    11 2   
    25    10    12 1   
    26    12    13 1   
    27    12    40 1   
    28    13    14 1   
    29    13    21 2   
    30    14    15 1   
    31    15    16 1   
    32    15    20 2   
    33    16    17 1   
    34    16    41 1   
    35    16    42 1   
    36    17    18 1   
    37    17    43 1   
    38    17    44 1   
    39    18    19 1   
    40    18    45 1   
    41    18    46 1   
    42    19    20 1   
    43    19    47 1   
    44    19    48 1   
    45    20    21 1   
    46    21    22 1   
    47    22    23 2   
    48    22    24 1   
    49    24    49 1   
    50    24    50 1   
    51    25    51 1   
    52    26    27 1   
    53    26    52 1   
    54    26    53 1   
    55    27    28 1   
    56    27    54 1   
    57    28    55 1   
    58    28    56 1   
    59    28    57 1   
@<TRIPOS>SUBSTRUCTURE
     1 O26         1 TEMP              0 ****  ****    0 ROOT
