@<TRIPOS>MOLECULE
O27
   62    66     1     0     0
SMALL
bcc


@<TRIPOS>ATOM
      1 F1           5.3240     0.0150     2.8600 f          1 O27      -0.229633
      2 C2           5.4560    -0.1680     1.5460 c3         1 O27       0.657600
      3 F3           6.0040     0.9430     1.0330 f          1 O27      -0.229633
      4 F4           6.3600    -1.1460     1.3710 f          1 O27      -0.229633
      5 C5           4.1660    -0.4860     0.8880 cc         1 O27       0.208600
      6 N6           3.0990    -0.7760     1.6070 nd         1 O27      -0.443800
      7 N7           2.1550    -1.0450     0.7180 na         1 O27       0.131400
      8 C8           2.5880    -0.9200    -0.5570 cd         1 O27      -0.097600
      9 C9           3.9130    -0.5620    -0.4920 cc         1 O27      -0.201600
     10 C10          4.7570    -0.3440    -1.7050 c6         1 O27       0.001900
     11 C11          4.0660    -0.9650    -2.9220 c6         1 O27      -0.075400
     12 C12          2.5850    -0.5940    -2.9880 c6         1 O27      -0.071400
     13 C13          1.8000    -1.1520    -1.7970 c6         1 O27      -0.009100
     14 C14          0.8070    -1.3130     1.1360 c3         1 O27      -0.027700
     15 C15          0.0020    -0.0250     1.1950 c          1 O27       0.635100
     16 O16          0.4250     0.9590     1.7720 o          1 O27      -0.547100
     17 C22         -3.3360     1.0270    -0.0150 cc         1 O27      -0.236600
     18 O28         -4.3440     0.0780    -1.9370 o          1 O27      -0.595100
     19 S19         -1.7020     2.5120     1.2990 ss         1 O27       0.014200
     20 C27         -3.8960    -0.0900    -0.8110 c          1 O27       0.706700
     21 N17         -1.1990    -0.0700     0.5780 ns         1 O27      -0.459100
     22 C21         -3.9700     2.3040     0.1100 cc         1 O27      -0.034300
     23 C20         -3.2120     3.1910     0.8050 cd         1 O27      -0.109400
     24 C18         -2.0960     0.9900     0.5760 cd         1 O27       0.095500
     25 C23         -5.3270     2.6640    -0.4190 c6         1 O27      -0.013100
     26 C24         -5.8530     3.9380     0.2390 c6         1 O27      -0.073400
     27 C25         -4.7850     5.0250     0.2840 c6         1 O27      -0.071400
     28 C26         -3.5990     4.5940     1.1450 c6         1 O27       0.002900
     29 N29         -3.8280    -1.2970    -0.2170 ns         1 O27      -0.580900
     30 C30         -3.8430    -2.5510    -0.9490 c5         1 O27       0.121700
     31 C31         -2.6280    -2.6250    -1.8690 c5         1 O27       0.118800
     32 N32         -1.5440    -2.7430    -0.8980 n7         1 O27      -0.838200
     33 C33         -1.9970    -3.7210     0.1070 c5         1 O27       0.137800
     34 C34         -3.5380    -3.6920     0.0220 c5         1 O27      -0.110400
     35 H10          4.9050     0.7270    -1.8710 hc         1 O27       0.059700
     36 H10A         5.7530    -0.7740    -1.5750 hc         1 O27       0.059700
     37 H11          4.5700    -0.6370    -3.8330 hc         1 O27       0.045200
     38 H11A         4.1660    -2.0530    -2.8810 hc         1 O27       0.045200
     39 H12          2.4830     0.4950    -3.0090 hc         1 O27       0.049700
     40 H12A         2.1450    -0.9690    -3.9120 hc         1 O27       0.049700
     41 H13          1.6320    -2.2260    -1.9310 hc         1 O27       0.051200
     42 H13A         0.8140    -0.6840    -1.7410 hc         1 O27       0.051200
     43 H14          0.3610    -2.0470     0.4690 h1         1 O27       0.092200
     44 H14A         0.8350    -1.7510     2.1350 h1         1 O27       0.092200
     45 HN17        -1.4210    -0.9190     0.0320 hn         1 O27       0.371500
     46 H23         -5.2700     2.8030    -1.5030 hc         1 O27       0.059200
     47 H23A        -6.0300     1.8430    -0.2590 hc         1 O27       0.059200
     48 H24         -6.7320     4.2910    -0.3040 hc         1 O27       0.040700
     49 H24A        -6.1840     3.7150     1.2580 hc         1 O27       0.040700
     50 H25         -4.4390     5.2390    -0.7320 hc         1 O27       0.043200
     51 H25A        -5.2000     5.9550     0.6780 hc         1 O27       0.043200
     52 H26         -3.8650     4.6620     2.2050 hc         1 O27       0.049200
     53 H26A        -2.7580     5.2770     0.9990 hc         1 O27       0.049200
     54 HN29        -3.5990    -1.3270     0.7640 hn         1 O27       0.319500
     55 H30         -4.7870    -2.6850    -1.4780 h1         1 O27       0.086700
     56 H31         -2.7220    -3.5060    -2.5180 h1         1 O27       0.061200
     57 H31A        -2.4990    -1.7520    -2.5070 h1         1 O27       0.061200
     58 HN32        -0.6870    -3.0460    -1.3430 hn         1 O27       0.358800
     59 H33         -1.6210    -4.7250    -0.1020 h1         1 O27       0.044200
     60 H33A        -1.6350    -3.4390     1.0980 h1         1 O27       0.044200
     61 H34         -4.0160    -3.5580     0.9930 hc         1 O27       0.062200
     62 H34A        -3.9160    -4.6240    -0.3960 hc         1 O27       0.062200
@<TRIPOS>BOND
     1     1     2 1   
     2     2     3 1   
     3     2     4 1   
     4     2     5 1   
     5     5     6 2   
     6     5     9 1   
     7     6     7 1   
     8     7     8 1   
     9     7    14 1   
    10     8     9 2   
    11     8    13 1   
    12     9    10 1   
    13    10    11 1   
    14    10    35 1   
    15    10    36 1   
    16    11    12 1   
    17    11    37 1   
    18    11    38 1   
    19    12    13 1   
    20    12    39 1   
    21    12    40 1   
    22    13    41 1   
    23    13    42 1   
    24    14    15 1   
    25    14    43 1   
    26    14    44 1   
    27    15    16 2   
    28    15    21 1   
    29    17    20 1   
    30    17    22 1   
    31    17    24 2   
    32    18    20 2   
    33    19    23 1   
    34    19    24 1   
    35    20    29 1   
    36    21    24 1   
    37    21    45 1   
    38    22    23 2   
    39    22    25 1   
    40    23    28 1   
    41    25    26 1   
    42    25    46 1   
    43    25    47 1   
    44    26    27 1   
    45    26    48 1   
    46    26    49 1   
    47    27    28 1   
    48    27    50 1   
    49    27    51 1   
    50    28    52 1   
    51    28    53 1   
    52    29    30 1   
    53    29    54 1   
    54    30    31 1   
    55    30    34 1   
    56    30    55 1   
    57    31    32 1   
    58    31    56 1   
    59    31    57 1   
    60    32    33 1   
    61    32    58 1   
    62    33    34 1   
    63    33    59 1   
    64    33    60 1   
    65    34    61 1   
    66    34    62 1   
@<TRIPOS>SUBSTRUCTURE
     1 O27         1 TEMP              0 ****  ****    0 ROOT
