@<TRIPOS>MOLECULE
O27
   62    66     1     0     0
SMALL
No Charge or Current Charge


@<TRIPOS>ATOM
      1 F1           5.8940    -1.0970     2.5110 f          1 O27      -0.108333
      2 C2           5.6620    -0.8180     1.2060 c3         1 O27       0.293700
      3 F3           6.1760     0.4130     0.9730 f          1 O27      -0.108333
      4 F4           6.3900    -1.6990     0.4820 f          1 O27      -0.108333
      5 C5           4.1820    -0.8890     0.8500 cc         1 O27       0.143300
      6 N6           3.2350    -1.2970     1.6830 nd         1 O27      -0.443800
      7 N7           2.0740    -1.1860     0.9270 na         1 O27       0.152800
      8 C8           2.3240    -0.7130    -0.3660 cd         1 O27      -0.148300
      9 C9           3.6670    -0.5310    -0.4140 cc         1 O27      -0.136300
     10 C10          4.4350    -0.0270    -1.6150 c6         1 O27       0.001900
     11 C11          3.5470    -0.1300    -2.8870 c6         1 O27      -0.075400
     12 C12          2.0980     0.3730    -2.6250 c6         1 O27      -0.071400
     13 C13          1.3860    -0.4640    -1.5270 c6         1 O27      -0.009100
     14 C14          0.7750    -1.5670     1.4910 c3         1 O27       0.001600
     15 C15         -0.1180    -0.3550     1.7470 c          1 O27       0.568100
     16 O16          0.1480     0.4460     2.6330 o          1 O27      -0.547100
     17 C22         -3.2960     0.8970     0.1080 cc         1 O27      -0.236600
     18 O28         -4.7280    -0.2410    -1.4700 o          1 O27      -0.595100
     19 S19         -1.7000     2.4810     1.4890 ss         1 O27       0.304000
     20 C27         -3.9430    -0.2900    -0.5320 c          1 O27       0.639700
     21 N17         -1.2370    -0.2270     0.9260 ns         1 O27      -0.392100
     22 C21         -3.8270     2.2290    -0.0040 cc         1 O27      -0.034300
     23 C20         -3.0820     3.1800     0.6480 cd         1 O27      -0.254300
     24 C18         -2.1140     0.8670     0.8460 cd         1 O27      -0.049400
     25 C23         -5.1010     2.5740    -0.7610 c6         1 O27      -0.013100
     26 C24         -5.6080     4.0000    -0.4220 c6         1 O27      -0.073400
     27 C25         -4.4490     5.0240    -0.3980 c6         1 O27      -0.071400
     28 C26         -3.4170     4.6560     0.6930 c6         1 O27       0.002900
     29 N29         -3.6030    -1.4820     0.0590 ns         1 O27      -0.513900
     30 C30         -3.7720    -2.7210    -0.7140 c5         1 O27       0.121700
     31 C31         -2.6020    -2.7220    -1.7430 c5         1 O27       0.118800
     32 N32         -1.4140    -2.9180    -0.8780 n7         1 O27      -0.893400
     33 C33         -1.8130    -4.0580    -0.0200 c5         1 O27       0.137800
     34 C34         -3.3340    -3.8480     0.2740 c5         1 O27      -0.110400
     35 H10          4.7300     1.0190    -1.4600 hc         1 O27       0.059700
     36 H10A         5.3630    -0.5940    -1.7700 hc         1 O27       0.059700
     37 H11          4.0030     0.4440    -3.7050 hc         1 O27       0.045200
     38 H11A         3.5110    -1.1750    -3.2240 hc         1 O27       0.045200
     39 H12          2.1320     1.4270    -2.3160 hc         1 O27       0.049700
     40 H12A         1.5130     0.3410    -3.5540 hc         1 O27       0.049700
     41 H13          1.0600    -1.4230    -1.9530 hc         1 O27       0.051200
     42 H13A         0.4770     0.0600    -1.2030 hc         1 O27       0.051200
     43 H14          0.2860    -2.2600     0.8070 h1         1 O27       0.092200
     44 H14A         0.9260    -2.0820     2.4460 h1         1 O27       0.092200
     45 HN17        -1.3600    -1.0070     0.2770 hn         1 O27       0.371500
     46 H23         -4.9200     2.5060    -1.8420 hc         1 O27       0.059200
     47 H23A        -5.9040     1.8600    -0.5330 hc         1 O27       0.059200
     48 H24         -6.3690     4.3070    -1.1520 hc         1 O27       0.040700
     49 H24A        -6.1040     3.9900     0.5590 hc         1 O27       0.040700
     50 H25         -3.9580     5.0460    -1.3810 hc         1 O27       0.043200
     51 H25A        -4.8380     6.0350    -0.2180 hc         1 O27       0.043200
     52 H26         -3.8240     4.9110     1.6810 hc         1 O27       0.049200
     53 H26A        -2.5110     5.2650     0.5660 hc         1 O27       0.049200
     54 HN29        -3.0470    -1.4270     0.8990 hn         1 O27       0.319500
     55 H30         -4.7730    -2.8550    -1.1490 h1         1 O27       0.086700
     56 H31         -2.7130    -3.5560    -2.4520 h1         1 O27       0.061200
     57 H31A        -2.5400    -1.7940    -2.3300 h1         1 O27       0.061200
     58 HN32        -0.5980    -3.1790    -1.4500 hn         1 O27       0.414000
     59 H33         -1.6640    -5.0030    -0.5610 h1         1 O27       0.044200
     60 H33A        -1.2130    -4.1060     0.8990 h1         1 O27       0.044200
     61 H34         -3.5230    -3.5970     1.3240 hc         1 O27       0.062200
     62 H34A        -3.8840    -4.7750     0.0760 hc         1 O27       0.062200
@<TRIPOS>BOND
     1     1     2 1   
     2     2     3 1   
     3     2     4 1   
     4     2     5 1   
     5     5     6 2   
     6     5     9 1   
     7     6     7 1   
     8     7     8 1   
     9     7    14 1   
    10     8     9 2   
    11     8    13 1   
    12     9    10 1   
    13    10    11 1   
    14    10    35 1   
    15    10    36 1   
    16    11    12 1   
    17    11    37 1   
    18    11    38 1   
    19    12    13 1   
    20    12    39 1   
    21    12    40 1   
    22    13    41 1   
    23    13    42 1   
    24    14    15 1   
    25    14    43 1   
    26    14    44 1   
    27    15    16 2   
    28    15    21 1   
    29    17    20 1   
    30    17    22 1   
    31    17    24 2   
    32    18    20 2   
    33    19    23 1   
    34    19    24 1   
    35    20    29 1   
    36    21    24 1   
    37    21    45 1   
    38    22    23 2   
    39    22    25 1   
    40    23    28 1   
    41    25    26 1   
    42    25    46 1   
    43    25    47 1   
    44    26    27 1   
    45    26    48 1   
    46    26    49 1   
    47    27    28 1   
    48    27    50 1   
    49    27    51 1   
    50    28    52 1   
    51    28    53 1   
    52    29    30 1   
    53    29    54 1   
    54    30    31 1   
    55    30    34 1   
    56    30    55 1   
    57    31    32 1   
    58    31    56 1   
    59    31    57 1   
    60    32    33 1   
    61    32    58 1   
    62    33    34 1   
    63    33    59 1   
    64    33    60 1   
    65    34    61 1   
    66    34    62 1   
@<TRIPOS>SUBSTRUCTURE
     1 O27         1 TEMP              0 ****  ****    0 ROOT
