@<TRIPOS>MOLECULE
O28
   50    53     1     0     0
SMALL
No Charge or Current Charge


@<TRIPOS>ATOM
      1 F1           4.9960    -4.2420    19.1410 f          1 O28      -0.108333
      2 C2           3.9210    -4.4750    18.3510 c3         1 O28       0.280700
      3 F3           4.3590    -5.2090    17.3020 f          1 O28      -0.108333
      4 F4           3.0750    -5.2570    19.0610 f          1 O28      -0.108333
      5 C5           3.2440    -3.1880    17.8960 cc         1 O28       0.157300
      6 N6           3.5950    -1.9760    18.3050 nd         1 O28      -0.458800
      7 N7           2.7100    -1.1420    17.6320 na         1 O28       0.144800
      8 C8           1.8320    -1.8530    16.8060 cd         1 O28      -0.126300
      9 C9           2.1670    -3.1550    16.9840 cc         1 O28      -0.143300
     10 C10          1.5020    -4.3270    16.2980 c6         1 O28       0.003900
     11 C11          0.1550    -3.8720    15.6690 c6         1 O28      -0.076400
     12 C12          0.2880    -2.5090    14.9320 c6         1 O28      -0.069400
     13 C13          0.7210    -1.3720    15.8980 c6         1 O28      -0.014100
     14 C14          2.7660     0.3130    17.8150 c3         1 O28       0.008600
     15 C15          1.5370     0.8460    18.5500 c          1 O28       0.577100
     16 O16          1.3890     0.7040    19.7560 o          1 O28      -0.556100
     17 N17          0.6100     1.4880    17.7480 ns         1 O28      -0.388100
     18 C18         -0.6360     2.0160    18.0770 cc         1 O28      -0.003400
     19 S19         -1.3510     2.0300    19.6900 ss         1 O28       0.292000
     20 C20         -2.7740     2.8450    19.0800 cc         1 O28      -0.241300
     21 C21         -2.7040     3.0600    17.7190 cd         1 O28      -0.052300
     22 C22         -1.4600     2.6080    17.1270 cd         1 O28      -0.254600
     23 C23         -3.8560     3.7310    16.9730 c6         1 O28      -0.017100
     24 C24         -5.1470     3.8460    17.8240 c6         1 O28      -0.072400
     25 C25         -4.8300     4.2870    19.2680 c6         1 O28      -0.071400
     26 C26         -3.9370     3.2360    19.9640 c6         1 O28      -0.000100
     27 C27         -1.0170     2.7200    15.6890 c          1 O28       0.649700
     28 O28          0.0300     2.2680    15.2500 o          1 O28      -0.671100
     29 N29         -1.8190     3.3760    14.8370 nt         1 O28      -0.589000
     30 H10          2.1580    -4.7200    15.5090 hc         1 O28       0.057200
     31 H10A         1.3210    -5.1550    16.9950 hc         1 O28       0.057200
     32 H11         -0.2080    -4.6430    14.9750 hc         1 O28       0.047200
     33 H11A        -0.6050    -3.7840    16.4580 hc         1 O28       0.047200
     34 H12          1.0270    -2.6050    14.1250 hc         1 O28       0.047200
     35 H12A        -0.6640    -2.2450    14.4510 hc         1 O28       0.047200
     36 H13         -0.1430    -1.0600    16.5010 hc         1 O28       0.058700
     37 H13A         1.0350    -0.4940    15.3190 hc         1 O28       0.058700
     38 H14          3.6510     0.5750    18.4050 h1         1 O28       0.096200
     39 H14A         2.8500     0.7960    16.8360 h1         1 O28       0.096200
     40 HN17         0.8670     1.5590    16.7640 hn         1 O28       0.380500
     41 H23         -3.5520     4.7380    16.6580 hc         1 O28       0.046200
     42 H23A        -4.1120     3.1700    16.0650 hc         1 O28       0.046200
     43 H24         -5.8410     4.5560    17.3540 hc         1 O28       0.045700
     44 H24A        -5.6620     2.8750    17.8450 hc         1 O28       0.045700
     45 H25         -4.3200     5.2600    19.2550 hc         1 O28       0.046200
     46 H25A        -5.7590     4.4240    19.8370 hc         1 O28       0.046200
     47 H26         -4.5390     2.3490    20.2030 hc         1 O28       0.053200
     48 H26A        -3.5840     3.6340    20.9250 hc         1 O28       0.053200
     49 HN29        -1.5370     3.4700    13.8740 hn         1 O28       0.320500
     50 HN2A        -2.6760     3.7860    15.1660 hn         1 O28       0.320500
@<TRIPOS>BOND
     1     1     2 1   
     2     2     3 1   
     3     2     4 1   
     4     2     5 1   
     5     5     6 2   
     6     5     9 1   
     7     6     7 1   
     8     7     8 1   
     9     7    14 1   
    10     8     9 2   
    11     8    13 1   
    12     9    10 1   
    13    10    11 1   
    14    10    30 1   
    15    10    31 1   
    16    11    12 1   
    17    11    32 1   
    18    11    33 1   
    19    12    13 1   
    20    12    34 1   
    21    12    35 1   
    22    13    36 1   
    23    13    37 1   
    24    14    15 1   
    25    14    38 1   
    26    14    39 1   
    27    15    16 2   
    28    15    17 1   
    29    17    18 1   
    30    17    40 1   
    31    18    19 1   
    32    18    22 2   
    33    19    20 1   
    34    20    21 2   
    35    20    26 1   
    36    21    22 1   
    37    21    23 1   
    38    22    27 1   
    39    23    24 1   
    40    23    41 1   
    41    23    42 1   
    42    24    25 1   
    43    24    43 1   
    44    24    44 1   
    45    25    26 1   
    46    25    45 1   
    47    25    46 1   
    48    26    47 1   
    49    26    48 1   
    50    27    28 2   
    51    27    29 1   
    52    29    49 1   
    53    29    50 1   
@<TRIPOS>SUBSTRUCTURE
     1 O28         1 TEMP              0 ****  ****    0 ROOT
