@<TRIPOS>MOLECULE
O28
   50    53     1     0     0
SMALL
abcg2


@<TRIPOS>ATOM
      1 F1           5.5720    -3.1640    18.9010 f          1 O28      -0.108333
      2 C2           4.5220    -3.9050    18.5050 c3         1 O28       0.280700
      3 F3           5.0030    -4.8800    17.6950 f          1 O28      -0.108333
      4 F4           4.0510    -4.5410    19.6100 f          1 O28      -0.108333
      5 C5           3.4710    -3.0980    17.8280 cc         1 O28       0.157300
      6 N6           3.5070    -1.7680    17.8850 nd         1 O28      -0.458800
      7 N7           2.4320    -1.3690    17.1860 na         1 O28       0.144800
      8 C8           1.7130    -2.4160    16.6980 cd         1 O28      -0.126300
      9 C9           2.3600    -3.5690    17.0980 cc         1 O28      -0.143300
     10 C10          1.8680    -4.9390    16.7470 c6         1 O28       0.003900
     11 C11          0.4110    -4.8600    16.2640 c6         1 O28      -0.076400
     12 C12          0.2000    -3.7210    15.2600 c6         1 O28      -0.069400
     13 C13          0.4630    -2.3440    15.8930 c6         1 O28      -0.014100
     14 C14          2.1460     0.0330    17.0180 c3         1 O28       0.008600
     15 C15          0.8660     0.4450    17.7400 c          1 O28       0.577100
     16 O16          0.4860    -0.0950    18.7700 o          1 O28      -0.556100
     17 N17          0.2190     1.4720    17.1440 ns         1 O28      -0.388100
     18 C18         -0.9400     2.0790    17.5840 cc         1 O28      -0.003400
     19 S19         -1.8170     1.5490    18.9740 ss         1 O28       0.292000
     20 C20         -3.0210     2.7760    18.7270 cc         1 O28      -0.241300
     21 C21         -2.7590     3.5540    17.6380 cd         1 O28      -0.052300
     22 C22         -1.5350     3.1690    16.9680 cd         1 O28      -0.254600
     23 C23         -3.7150     4.6470    17.2290 c6         1 O28      -0.017100
     24 C24         -5.0700     4.5210    17.9340 c6         1 O28      -0.072400
     25 C25         -4.9010     4.2410    19.4250 c6         1 O28      -0.071400
     26 C26         -4.2040     2.8950    19.6410 c6         1 O28      -0.000100
     27 C27         -0.8890     3.7960    15.7940 c          1 O28       0.649700
     28 O28          0.0430     3.2350    15.1860 o          1 O28      -0.671100
     29 N29         -1.3210     5.0050    15.3890 nt         1 O28      -0.589000
     30 H10          2.4950    -5.3670    15.9580 hc         1 O28       0.057200
     31 H10A         1.9480    -5.6120    17.6040 hc         1 O28       0.057200
     32 H11          0.1240    -5.8120    15.8130 hc         1 O28       0.047200
     33 H11A        -0.2460    -4.7020    17.1250 hc         1 O28       0.047200
     34 H12          0.8760    -3.8590    14.4120 hc         1 O28       0.047200
     35 H12A        -0.8180    -3.7470    14.8680 hc         1 O28       0.047200
     36 H13         -0.3740    -2.0620    16.5400 hc         1 O28       0.058700
     37 H13A         0.5390    -1.5720    15.1230 hc         1 O28       0.058700
     38 H14          2.9790     0.5900    17.4470 h1         1 O28       0.096200
     39 H14A         2.0830     0.2760    15.9570 h1         1 O28       0.096200
     40 HN17         0.5500     1.8770    16.2630 hn         1 O28       0.380500
     41 H23         -3.2820     5.6260    17.4690 hc         1 O28       0.046200
     42 H23A        -3.8680     4.6250    16.1480 hc         1 O28       0.046200
     43 H24         -5.6420     5.4380    17.7770 hc         1 O28       0.045700
     44 H24A        -5.6390     3.7050    17.4780 hc         1 O28       0.045700
     45 H25         -4.3030     5.0380    19.8780 hc         1 O28       0.046200
     46 H25A        -5.8700     4.2370    19.9280 hc         1 O28       0.046200
     47 H26         -4.9090     2.0800    19.4420 hc         1 O28       0.053200
     48 H26A        -3.8930     2.7870    20.6830 hc         1 O28       0.053200
     49 HN29        -0.8450     5.4440    14.6170 hn         1 O28       0.320500
     50 HN2A        -1.9940     5.5450    15.9000 hn         1 O28       0.320500
@<TRIPOS>BOND
     1     1     2 1   
     2     2     3 1   
     3     2     4 1   
     4     2     5 1   
     5     5     6 2   
     6     5     9 1   
     7     6     7 1   
     8     7     8 1   
     9     7    14 1   
    10     8     9 2   
    11     8    13 1   
    12     9    10 1   
    13    10    11 1   
    14    10    30 1   
    15    10    31 1   
    16    11    12 1   
    17    11    32 1   
    18    11    33 1   
    19    12    13 1   
    20    12    34 1   
    21    12    35 1   
    22    13    36 1   
    23    13    37 1   
    24    14    15 1   
    25    14    38 1   
    26    14    39 1   
    27    15    16 2   
    28    15    17 1   
    29    17    18 1   
    30    17    40 1   
    31    18    19 1   
    32    18    22 2   
    33    19    20 1   
    34    20    21 2   
    35    20    26 1   
    36    21    22 1   
    37    21    23 1   
    38    22    27 1   
    39    23    24 1   
    40    23    41 1   
    41    23    42 1   
    42    24    25 1   
    43    24    43 1   
    44    24    44 1   
    45    25    26 1   
    46    25    45 1   
    47    25    46 1   
    48    26    47 1   
    49    26    48 1   
    50    27    28 2   
    51    27    29 1   
    52    29    49 1   
    53    29    50 1   
@<TRIPOS>SUBSTRUCTURE
     1 O28         1 TEMP              0 ****  ****    0 ROOT
