@<TRIPOS>MOLECULE
O29
   64    67     1     0     0
SMALL
No Charge or Current Charge


@<TRIPOS>ATOM
      1 O1          -0.9960     2.5580    14.6660 o          1 O29      -0.662100
      2 C2          -1.6700     3.1860    15.4720 c          1 O29       0.643700
      3 N3          -1.5040     4.5430    15.5840 ns         1 O29      -0.494900
      4 C4          -2.7130     2.5500    16.3570 cc         1 O29      -0.251600
      5 C5          -3.5510     3.1980    17.3480 cc         1 O29      -0.054300
      6 C6          -3.5030     4.6760    17.7210 c6         1 O29      -0.018100
      7 C7          -4.4460     2.3370    17.9460 cd         1 O29      -0.242300
      8 C8          -5.4710     2.7360    18.9870 c6         1 O29       0.000900
      9 C9          -5.6920     4.2640    18.9860 c6         1 O29      -0.071400
     10 C10         -4.3350     5.0000    18.9890 c6         1 O29      -0.072400
     11 S11         -4.2810     0.6760    17.3810 ss         1 O29       0.290000
     12 C12         -2.9800     1.1900    16.2870 cd         1 O29      -0.001400
     13 N13         -2.2710     0.3350    15.4510 ns         1 O29      -0.379100
     14 C14         -2.3660    -1.0370    15.2980 c          1 O29       0.583100
     15 O15         -3.1780    -1.7280    15.8990 o          1 O29      -0.571100
     16 C16         -1.3550    -1.6400    14.3250 c3         1 O29       0.015600
     17 N17          0.0220    -1.3490    14.7380 na         1 O29       0.139800
     18 N18          0.7310    -0.3490    14.1040 nc         1 O29      -0.467800
     19 C19          1.8730    -0.3030    14.7800 cd         1 O29       0.162300
     20 C20          2.9730     0.6970    14.4450 c3         1 O29       0.279700
     21 F21          4.1660     0.0860    14.2620 f          1 O29      -0.108333
     22 F22          3.1420     1.5990    15.4400 f          1 O29      -0.108333
     23 F23          2.7220     1.4040    13.3160 f          1 O29      -0.108333
     24 C24          0.7170    -1.9330    15.7900 cc         1 O29      -0.114300
     25 C25          1.8970    -1.2590    15.8250 cd         1 O29      -0.146300
     26 C26          2.9950    -1.5280    16.8310 c6         1 O29       0.002900
     27 C27          0.2970    -3.0160    16.7530 c6         1 O29      -0.013100
     28 C28          1.5370    -3.5310    17.5360 c6         1 O29      -0.070400
     29 C29          2.4430    -2.3640    18.0200 c6         1 O29      -0.076400
     30 C30         -0.5120     5.3370    14.8450 c3         1 O29       0.105000
     31 C31          0.9490     5.0600    15.2930 c3         1 O29       0.140800
     32 N32          1.9940     5.8290    14.5630 n3         1 O29      -0.712600
     33 C33          1.8960     7.2970    14.7470 c3         1 O29       0.148600
     34 C34          3.3560     5.3260    14.8510 c3         1 O29       0.148600
     35 HN3         -2.1110     5.0160    16.2350 hn         1 O29       0.321500
     36 H6          -2.4740     5.0000    17.9240 hc         1 O29       0.046200
     37 H6A         -3.8810     5.2850    16.8880 hc         1 O29       0.046200
     38 H8          -6.4260     2.2250    18.8100 hc         1 O29       0.052700
     39 H8A         -5.1300     2.4170    19.9820 hc         1 O29       0.052700
     40 H9          -6.2700     4.5570    18.0980 hc         1 O29       0.044700
     41 H9A         -6.2880     4.5570    19.8610 hc         1 O29       0.044700
     42 H10         -3.7680     4.7080    19.8840 hc         1 O29       0.045700
     43 H10A        -4.4930     6.0840    19.0640 hc         1 O29       0.045700
     44 HN13        -1.5360     0.7630    14.8880 hn         1 O29       0.382500
     45 H16         -1.5040    -2.7240    14.2890 h1         1 O29       0.092700
     46 H16A        -1.5390    -1.2220    13.3290 h1         1 O29       0.092700
     47 H26          3.8130    -2.0780    16.3460 hc         1 O29       0.057200
     48 H26A         3.4280    -0.5910    17.2060 hc         1 O29       0.057200
     49 H27         -0.4440    -2.6200    17.4620 hc         1 O29       0.059200
     50 H27A        -0.1880    -3.8520    16.2300 hc         1 O29       0.059200
     51 H28          1.2100    -4.1360    18.3930 hc         1 O29       0.046200
     52 H28A         2.1230    -4.2000    16.8910 hc         1 O29       0.046200
     53 H29          3.2780    -2.7560    18.6170 hc         1 O29       0.047700
     54 H29A         1.8650    -1.7100    18.6880 hc         1 O29       0.047700
     55 H30         -0.6080     5.1170    13.7740 h1         1 O29       0.061200
     56 H30A        -0.7500     6.3970    14.9950 h1         1 O29       0.061200
     57 H31          1.0240     5.2640    16.3710 h1         1 O29       0.040700
     58 H31A         1.1400     3.9870    15.1620 h1         1 O29       0.040700
     59 H33          2.6850     7.8110    14.1830 h1         1 O29       0.031867
     60 H33A         0.9320     7.6800    14.3870 h1         1 O29       0.031867
     61 H33B         2.0020     7.5670    15.8070 h1         1 O29       0.031867
     62 H34          4.1030     5.8570    14.2460 h1         1 O29       0.031867
     63 H34A         3.6100     5.4650    15.9110 h1         1 O29       0.031867
     64 H34B         3.4340     4.2560    14.6160 h1         1 O29       0.031867
@<TRIPOS>BOND
     1     1     2 2   
     2     2     3 1   
     3     2     4 1   
     4     3    30 1   
     5     3    35 1   
     6     4     5 1   
     7     4    12 2   
     8     5     6 1   
     9     5     7 2   
    10     6    10 1   
    11     6    36 1   
    12     6    37 1   
    13     7     8 1   
    14     7    11 1   
    15     8     9 1   
    16     8    38 1   
    17     8    39 1   
    18     9    10 1   
    19     9    40 1   
    20     9    41 1   
    21    10    42 1   
    22    10    43 1   
    23    11    12 1   
    24    12    13 1   
    25    13    14 1   
    26    13    44 1   
    27    14    15 2   
    28    14    16 1   
    29    16    17 1   
    30    16    45 1   
    31    16    46 1   
    32    17    18 1   
    33    17    24 1   
    34    18    19 2   
    35    19    20 1   
    36    19    25 1   
    37    20    21 1   
    38    20    22 1   
    39    20    23 1   
    40    24    25 2   
    41    24    27 1   
    42    25    26 1   
    43    26    29 1   
    44    26    47 1   
    45    26    48 1   
    46    27    28 1   
    47    27    49 1   
    48    27    50 1   
    49    28    29 1   
    50    28    51 1   
    51    28    52 1   
    52    29    53 1   
    53    29    54 1   
    54    30    31 1   
    55    30    55 1   
    56    30    56 1   
    57    31    32 1   
    58    31    57 1   
    59    31    58 1   
    60    32    33 1   
    61    32    34 1   
    62    33    59 1   
    63    33    60 1   
    64    33    61 1   
    65    34    62 1   
    66    34    63 1   
    67    34    64 1   
@<TRIPOS>SUBSTRUCTURE
     1 O29         1 TEMP              0 ****  ****    0 ROOT
