@<TRIPOS>MOLECULE
O29
   64    67     1     0     0
SMALL
abcg2


@<TRIPOS>ATOM
      1 O1          -0.5190     3.4930    14.8180 o          1 O29      -0.662100
      2 C2          -1.4760     4.0060    15.4330 c          1 O29       0.643700
      3 N3          -1.9540     5.2080    15.0620 ns         1 O29      -0.494900
      4 C4          -2.1310     3.3060    16.5610 cc         1 O29      -0.251600
      5 C5          -3.0660     3.8300    17.5350 cc         1 O29      -0.054300
      6 C6          -3.5250     5.2610    17.6790 c6         1 O29      -0.018100
      7 C7          -3.4960     2.8760    18.4100 cd         1 O29      -0.242300
      8 C8          -4.4540     3.0740    19.5450 c6         1 O29       0.000900
      9 C9          -5.1770     4.4160    19.3980 c6         1 O29      -0.071400
     10 C10         -4.1840     5.5180    19.0390 c6         1 O29      -0.072400
     11 S11         -2.7750     1.3250    18.1100 ss         1 O29       0.290000
     12 C12         -1.8740     1.9610    16.7810 cd         1 O29      -0.001400
     13 N13         -0.9950     1.2020    16.0340 ns         1 O29      -0.379100
     14 C14         -0.6820    -0.0960    16.2390 c          1 O29       0.583100
     15 O15         -1.1650    -0.7780    17.1340 o          1 O29      -0.571100
     16 C16          0.3240    -0.6600    15.2390 c3         1 O29       0.015600
     17 N17          1.2780    -1.5180    15.8990 na         1 O29       0.139800
     18 N18          2.2860    -0.9570    16.5900 nc         1 O29      -0.467800
     19 C19          2.9070    -1.9810    17.1710 cd         1 O29       0.162300
     20 C20          4.1280    -1.7380    17.9890 c3         1 O29       0.279700
     21 F21          5.2640    -2.1150    17.3420 f          1 O29      -0.108333
     22 F22          4.1090    -2.4450    19.1440 f          1 O29      -0.108333
     23 F23          4.2860    -0.4430    18.3170 f          1 O29      -0.108333
     24 C24          1.2400    -2.8690    16.0430 cc         1 O29      -0.114300
     25 C25          2.2970    -3.2150    16.8630 cd         1 O29      -0.146300
     26 C26          2.6050    -4.6330    17.2360 c6         1 O29       0.002900
     27 C27          0.2540    -3.8100    15.4420 c6         1 O29      -0.013100
     28 C28          0.8000    -5.2440    15.5500 c6         1 O29      -0.070400
     29 C29          1.3920    -5.5270    16.9340 c6         1 O29      -0.076400
     30 C30         -1.3630     5.9890    13.9880 c3         1 O29       0.105000
     31 C31         -0.1400     6.7720    14.4700 c3         1 O29       0.140800
     32 N32          0.5640     7.4410    13.3820 n3         1 O29      -0.712600
     33 C33         -0.1940     8.5610    12.8390 c3         1 O29       0.148600
     34 C34          1.8860     7.8790    13.8130 c3         1 O29       0.148600
     35 HN3         -2.7480     5.5940    15.5410 hn         1 O29       0.321500
     36 H6          -2.6780     5.9400    17.5600 hc         1 O29       0.046200
     37 H6A         -4.2440     5.5030    16.8860 hc         1 O29       0.046200
     38 H8          -5.1750     2.2530    19.5810 hc         1 O29       0.052700
     39 H8A         -3.9120     3.0500    20.4970 hc         1 O29       0.052700
     40 H9          -5.9350     4.3380    18.6120 hc         1 O29       0.044700
     41 H9A         -5.6980     4.6550    20.3270 hc         1 O29       0.044700
     42 H10         -3.4080     5.5650    19.8100 hc         1 O29       0.045700
     43 H10A        -4.6770     6.4910    19.0200 hc         1 O29       0.045700
     44 HN13        -0.5150     1.7630    15.3250 hn         1 O29       0.382500
     45 H16         -0.2210    -1.2420    14.4960 h1         1 O29       0.092700
     46 H16A         0.8620     0.1350    14.7280 h1         1 O29       0.092700
     47 H26          3.4720    -4.9860    16.6660 hc         1 O29       0.057200
     48 H26A         2.8770    -4.7070    18.2900 hc         1 O29       0.057200
     49 H27         -0.7000    -3.7300    15.9730 hc         1 O29       0.059200
     50 H27A         0.0560    -3.5530    14.3990 hc         1 O29       0.059200
     51 H28         -0.0030    -5.9500    15.3320 hc         1 O29       0.046200
     52 H28A         1.5730    -5.3920    14.7900 hc         1 O29       0.046200
     53 H29          1.6860    -6.5760    17.0060 hc         1 O29       0.047700
     54 H29A         0.6220    -5.3570    17.6940 hc         1 O29       0.047700
     55 H30         -1.0670     5.3210    13.1810 h1         1 O29       0.061200
     56 H30A        -2.1380     6.6560    13.6140 h1         1 O29       0.061200
     57 H31         -0.4510     7.4870    15.2520 h1         1 O29       0.040700
     58 H31A         0.5500     6.0660    14.9340 h1         1 O29       0.040700
     59 H33          0.3720     9.0230    12.0280 h1         1 O29       0.031867
     60 H33A        -1.1470     8.2230    12.4340 h1         1 O29       0.031867
     61 H33B        -0.3970     9.3340    13.6000 h1         1 O29       0.031867
     62 H34          2.4180     8.3240    12.9710 h1         1 O29       0.031867
     63 H34A         1.8380     8.6290    14.6210 h1         1 O29       0.031867
     64 H34B         2.4600     7.0240    14.1740 h1         1 O29       0.031867
@<TRIPOS>BOND
     1     1     2 2   
     2     2     3 1   
     3     2     4 1   
     4     3    30 1   
     5     3    35 1   
     6     4     5 1   
     7     4    12 2   
     8     5     6 1   
     9     5     7 2   
    10     6    10 1   
    11     6    36 1   
    12     6    37 1   
    13     7     8 1   
    14     7    11 1   
    15     8     9 1   
    16     8    38 1   
    17     8    39 1   
    18     9    10 1   
    19     9    40 1   
    20     9    41 1   
    21    10    42 1   
    22    10    43 1   
    23    11    12 1   
    24    12    13 1   
    25    13    14 1   
    26    13    44 1   
    27    14    15 2   
    28    14    16 1   
    29    16    17 1   
    30    16    45 1   
    31    16    46 1   
    32    17    18 1   
    33    17    24 1   
    34    18    19 2   
    35    19    20 1   
    36    19    25 1   
    37    20    21 1   
    38    20    22 1   
    39    20    23 1   
    40    24    25 2   
    41    24    27 1   
    42    25    26 1   
    43    26    29 1   
    44    26    47 1   
    45    26    48 1   
    46    27    28 1   
    47    27    49 1   
    48    27    50 1   
    49    28    29 1   
    50    28    51 1   
    51    28    52 1   
    52    29    53 1   
    53    29    54 1   
    54    30    31 1   
    55    30    55 1   
    56    30    56 1   
    57    31    32 1   
    58    31    57 1   
    59    31    58 1   
    60    32    33 1   
    61    32    34 1   
    62    33    59 1   
    63    33    60 1   
    64    33    61 1   
    65    34    62 1   
    66    34    63 1   
    67    34    64 1   
@<TRIPOS>SUBSTRUCTURE
     1 O29         1 TEMP              0 ****  ****    0 ROOT
