@<TRIPOS>MOLECULE
O2A
   23    24     1     0     0
SMALL
bcc


@<TRIPOS>ATOM
      1 N1           2.8100     0.3430    -0.1330 ns         1 O2A      -0.565900
      2 C4           0.3240     1.8040     0.1470 ca         1 O2A      -0.082000
      3 C5          -0.9030     2.4750     0.1130 ca         1 O2A      -0.177000
      4 C6          -2.0940     1.7790     0.0330 ca         1 O2A      -0.050000
      5 C7          -2.0600     0.3840    -0.0040 ca         1 O2A      -0.113800
      6 C8          -3.0670    -0.6270    -0.0770 cc         1 O2A      -0.194200
      7 C10         -0.8100    -0.2820     0.0410 ca         1 O2A      -0.005200
      8 C1           4.1100    -0.2850    -0.1090 c3         1 O2A       0.095300
      9 C2           1.6880    -0.3370     0.1330 c          1 O2A       0.689700
     10 O1           1.7060    -1.5400     0.3870 o          1 O2A      -0.641100
     11 C3           0.4060     0.4180     0.0990 ca         1 O2A      -0.168600
     12 C9          -2.4160    -1.8240    -0.0700 cd         1 O2A      -0.107100
     13 N2          -1.0670    -1.6170    -0.0040 na         1 O2A      -0.154400
     14 H1           2.7600     1.3020    -0.4270 hn         1 O2A       0.319500
     15 H3          -0.9110     3.5560     0.1560 ha         1 O2A       0.131000
     16 H4          -3.0390     2.3080     0.0050 ha         1 O2A       0.134000
     17 H5          -4.1340    -0.4790    -0.1240 ha         1 O2A       0.156000
     18 H6           4.8570     0.4740    -0.3230 h1         1 O2A       0.040367
     19 H7           4.3280    -0.7140     0.8690 h1         1 O2A       0.040367
     20 H8           4.1960    -1.0740    -0.8560 h1         1 O2A       0.040367
     21 H9          -2.8110    -2.8270    -0.1060 h4         1 O2A       0.164000
     22 H10         -0.3620    -2.3330     0.0520 hn         1 O2A       0.327700
     23 H2           1.2210     2.4030     0.2340 ha         1 O2A       0.121000
@<TRIPOS>BOND
     1     1     8 1   
     2     1     9 1   
     3     1    14 1   
     4     2     3 ar  
     5     2    11 ar  
     6     2    23 1   
     7     3     4 ar  
     8     3    15 1   
     9     4     5 ar  
    10     4    16 1   
    11     5     6 1   
    12     5     7 ar  
    13     6    12 2   
    14     6    17 1   
    15     7    11 ar  
    16     7    13 1   
    17     8    18 1   
    18     8    19 1   
    19     8    20 1   
    20     9    10 2   
    21     9    11 1   
    22    12    13 1   
    23    12    21 1   
    24    13    22 1   
@<TRIPOS>SUBSTRUCTURE
     1 O2A         1 TEMP              0 ****  ****    0 ROOT
