@<TRIPOS>MOLECULE
O2A
   23    24     1     0     0
SMALL
No Charge or Current Charge


@<TRIPOS>ATOM
      1 N1           2.8490     0.3400    -0.0210 ns         1 O2A      -0.498900
      2 C4           0.3440     1.7840     0.0010 ca         1 O2A      -0.064000
      3 C5          -0.8890     2.4780     0.0120 ca         1 O2A      -0.159000
      4 C6          -2.1080     1.7740     0.0230 ca         1 O2A      -0.032000
      5 C7          -2.0470     0.3770     0.0210 ca         1 O2A      -0.113800
      6 C8          -3.1030    -0.5870     0.0300 cc         1 O2A      -0.244200
      7 C10         -0.8610    -0.3070     0.0110 ca         1 O2A      -0.005200
      8 C1           4.2020    -0.2230    -0.0340 c3         1 O2A       0.095300
      9 C2           1.6940    -0.4100    -0.0120 c          1 O2A       0.622700
     10 O1           1.7440    -1.6340    -0.0130 o          1 O2A      -0.641100
     11 C3           0.3850     0.3610     0.0000 ca         1 O2A      -0.168600
     12 C9          -2.5090    -1.8420     0.0240 cd         1 O2A      -0.157100
     13 N2          -1.1020    -1.6740     0.0120 na         1 O2A      -0.204700
     14 H1           2.7430     1.3460    -0.0200 hn         1 O2A       0.319500
     15 H3          -0.8960     3.5660     0.0130 ha         1 O2A       0.113000
     16 H4          -3.0610     2.2970     0.0310 ha         1 O2A       0.116000
     17 H5          -4.1750    -0.3930     0.0400 ha         1 O2A       0.206000
     18 H6           4.9370     0.5910    -0.0400 h1         1 O2A       0.040367
     19 H7           4.3530    -0.8410     0.8610 h1         1 O2A       0.040367
     20 H8           4.3370    -0.8400    -0.9310 h1         1 O2A       0.040367
     21 H9          -2.9720    -2.8270     0.0280 h4         1 O2A       0.214000
     22 H10         -0.3910    -2.4020     0.0060 hn         1 O2A       0.378000
     23 H2           1.2570     2.3720    -0.0070 ha         1 O2A       0.103000
@<TRIPOS>BOND
     1     1     8 1   
     2     1     9 1   
     3     1    14 1   
     4     2     3 ar  
     5     2    11 ar  
     6     2    23 1   
     7     3     4 ar  
     8     3    15 1   
     9     4     5 ar  
    10     4    16 1   
    11     5     6 1   
    12     5     7 ar  
    13     6    12 2   
    14     6    17 1   
    15     7    11 ar  
    16     7    13 1   
    17     8    18 1   
    18     8    19 1   
    19     8    20 1   
    20     9    10 2   
    21     9    11 1   
    22    12    13 1   
    23    12    21 1   
    24    13    22 1   
@<TRIPOS>SUBSTRUCTURE
     1 O2A         1 TEMP              0 ****  ****    0 ROOT
