@<TRIPOS>MOLECULE
O2B
   71    76     1     0     0
SMALL
No Charge or Current Charge


@<TRIPOS>ATOM
      1 N3          -2.8230   -15.7960    49.3260 na         1 O2B      -0.163600
      2 C4          -2.4700   -15.0810    48.2070 ca         1 O2B      -0.004200
      3 C5          -3.0090   -15.6770    47.1100 ca         1 O2B      -0.038600
      4 C6          -2.8010   -15.0920    45.8410 ca         1 O2B       0.446900
      5 C8          -1.5340   -13.3890    46.7770 ca         1 O2B       0.612900
      6 C10         -2.7190   -15.2730    50.7160 c3         1 O2B       0.145600
      7 C13         -4.7590   -12.0290    50.3760 ca         1 O2B      -0.111000
      8 C15         -2.6780   -11.4660    51.4920 ca         1 O2B      -0.111000
      9 C21          1.2250   -10.7190    46.9320 c6         1 O2B       0.147600
     10 C22          0.1880   -11.7070    47.5430 c6         1 O2B       0.169800
     11 C24         -2.4860   -10.3770    46.3410 c3         1 O2B      -0.113100
     12 C26         -4.7910   -18.9910    48.8800 cc         1 O2B      -0.165000
     13 C1          -3.5460   -16.9030    48.7940 cd         1 O2B       0.354800
     14 N2          -3.7000   -16.8330    47.4460 nc         1 O2B      -0.550100
     15 N7          -2.0760   -13.9550    45.6770 nb         1 O2B      -0.744000
     16 C9          -1.6920   -13.9250    48.0710 ca         1 O2B      -0.239000
     17 C11         -3.1120   -13.7860    50.8320 ca         1 O2B      -0.106300
     18 C12         -4.3600   -13.3750    50.3140 ca         1 O2B      -0.096000
     19 C14         -3.9170   -11.0730    50.9640 ca         1 O2B      -0.101000
     20 C16         -2.2760   -12.8120    51.4310 ca         1 O2B      -0.096000
     21 N17         -0.7990   -12.2130    46.5330 nh         1 O2B      -0.759300
     22 C18         -1.3490   -11.1540    45.6180 c6         1 O2B       0.191500
     23 C19         -0.2310   -10.1940    45.0970 c6         1 O2B       0.145600
     24 O20          0.5630    -9.6720    46.1880 os         1 O2B      -0.443000
     25 C23         -1.3520   -15.6450    51.3350 c3         1 O2B      -0.102100
     26 C25         -4.3230   -19.1860    51.5800 cc         1 O2B       0.692900
     27 C27         -4.0560   -18.0250    49.6020 cd         1 O2B       0.348700
     28 N28         -3.8010   -18.1360    50.9940 nd         1 O2B      -0.795000
     29 N30         -5.2690   -20.0650    49.6220 na         1 O2B       0.043200
     30 C31         -5.0780   -20.1850    50.9350 cc         1 O2B      -0.196000
     31 N32         -5.6830   -21.2920    51.3340 nd         1 O2B      -0.082000
     32 N33         -6.2820   -21.8680    50.2110 nd         1 O2B      -0.364700
     33 C34         -6.0270   -21.1000    49.1540 cc         1 O2B       0.341800
     34 C35         -6.4810   -21.3340    47.7410 c3         1 O2B      -0.104400
     35 C36         -3.3040   -18.4850    53.7950 c3         1 O2B       0.237500
     36 C37         -4.1500   -17.3170    54.3360 c3         1 O2B      -0.109600
     37 C38         -2.7220   -19.3530    54.9250 c3         1 O2B      -0.109600
     38 H39         -3.2200   -15.5420    44.9410 h4         1 O2B       0.031100
     39 H41         -3.4760   -15.7810    51.3200 h1         1 O2B       0.091700
     40 H43         -5.7210   -11.7290    49.9680 ha         1 O2B       0.115500
     41 H45         -2.0250   -10.7260    51.9490 ha         1 O2B       0.115500
     42 H50          1.9060   -11.2620    46.2610 h1         1 O2B       0.050700
     43 H51          1.8270   -10.2670    47.7330 h1         1 O2B       0.050700
     44 H52         -0.3420   -11.2000    48.3630 h1         1 O2B       0.046200
     45 H53          0.7430   -12.5480    47.9840 h1         1 O2B       0.046200
     46 H57         -3.2890   -11.0530    46.6570 hc         1 O2B       0.042367
     47 H58         -2.1170    -9.8560    47.2320 hc         1 O2B       0.042367
     48 H59         -2.9310    -9.6270    45.6770 hc         1 O2B       0.042367
     49 H60         -5.0110   -18.9640    47.8220 h4         1 O2B       0.175000
     50 H40         -1.2450   -13.4450    48.9320 ha         1 O2B       0.133000
     51 H42         -5.0250   -14.1030    49.8530 ha         1 O2B       0.115500
     52 H44         -4.2250   -10.0310    51.0110 ha         1 O2B       0.115000
     53 H46         -1.3080   -13.0770    51.8460 ha         1 O2B       0.115500
     54 H47         -1.7940   -11.6170    44.7230 h1         1 O2B       0.092700
     55 H48          0.4280   -10.7380    44.4040 h1         1 O2B       0.054700
     56 H49         -0.6800    -9.3570    44.5450 h1         1 O2B       0.054700
     57 H55         -1.3190   -15.3760    52.3970 hc         1 O2B       0.050033
     58 H56         -1.1810   -16.7250    51.2610 hc         1 O2B       0.050033
     59 H54         -0.5330   -15.1360    50.8140 hc         1 O2B       0.050033
     60 H61         -4.5400   -20.1730    53.2950 hn         1 O2B       0.518000
     61 H63         -7.0640   -22.2590    47.6650 hc         1 O2B       0.063700
     62 H64         -7.1110   -20.5070    47.3940 hc         1 O2B       0.063700
     63 H62         -5.6220   -21.4190    47.0660 hc         1 O2B       0.063700
     64 H65         -2.4580   -18.0630    53.2320 h1         1 O2B       0.078700
     65 H67         -3.5440   -16.6740    54.9860 hc         1 O2B       0.045033
     66 H68         -4.5320   -16.7000    53.5140 hc         1 O2B       0.045033
     67 H66         -5.0040   -17.6860    54.9170 hc         1 O2B       0.045033
     68 H71         -2.0830   -18.7490    55.5790 hc         1 O2B       0.045033
     69 H69         -3.5190   -19.7940    55.5360 hc         1 O2B       0.045033
     70 H70         -2.1110   -20.1650    54.5130 hc         1 O2B       0.045033
     71 N29         -4.1260   -19.3260    52.9170 nu         1 O2B      -0.912100
@<TRIPOS>BOND
     1     1     2 1   
     2     1     6 1   
     3     1    13 1   
     4     2     3 ar  
     5     2    16 ar  
     6     3     4 ar  
     7     3    14 1   
     8     4    15 ar  
     9     4    38 1   
    10     5    15 ar  
    11     5    16 ar  
    12     5    21 1   
    13     6    17 1   
    14     6    25 1   
    15     6    39 1   
    16     7    18 ar  
    17     7    19 ar  
    18     7    40 1   
    19     8    19 ar  
    20     8    20 ar  
    21     8    41 1   
    22     9    10 1   
    23     9    24 1   
    24     9    42 1   
    25     9    43 1   
    26    10    21 1   
    27    10    44 1   
    28    10    45 1   
    29    11    22 1   
    30    11    46 1   
    31    11    47 1   
    32    11    48 1   
    33    12    27 2   
    34    12    29 1   
    35    12    49 1   
    36    13    14 2   
    37    13    27 1   
    38    16    50 1   
    39    17    18 ar  
    40    17    20 ar  
    41    18    51 1   
    42    19    52 1   
    43    20    53 1   
    44    21    22 1   
    45    22    23 1   
    46    22    54 1   
    47    23    24 1   
    48    23    55 1   
    49    23    56 1   
    50    25    57 1   
    51    25    58 1   
    52    25    59 1   
    53    26    28 2   
    54    26    30 1   
    55    26    71 1   
    56    27    28 1   
    57    29    30 1   
    58    29    33 1   
    59    30    31 2   
    60    31    32 1   
    61    32    33 2   
    62    33    34 1   
    63    34    61 1   
    64    34    62 1   
    65    34    63 1   
    66    35    36 1   
    67    35    37 1   
    68    35    64 1   
    69    35    71 1   
    70    36    65 1   
    71    36    66 1   
    72    36    67 1   
    73    37    68 1   
    74    37    69 1   
    75    37    70 1   
    76    60    71 1   
@<TRIPOS>SUBSTRUCTURE
     1 O2B         1 TEMP              0 ****  ****    0 ROOT
