@<TRIPOS>MOLECULE
O2B
   71    76     1     0     0
SMALL
abcg2


@<TRIPOS>ATOM
      1 N3          -2.8750   -15.7170    49.3660 na         1 O2B      -0.163600
      2 C4          -2.3350   -15.0070    48.3300 ca         1 O2B      -0.004200
      3 C5          -2.5690   -15.7820    47.1890 ca         1 O2B      -0.038600
      4 C6          -2.1320   -15.2850    45.9690 ca         1 O2B       0.446900
      5 C8          -1.2730   -13.3870    46.9770 ca         1 O2B       0.612900
      6 C10         -2.9180   -15.2720    50.7600 c3         1 O2B       0.145600
      7 C13         -5.3880   -12.4320    50.2830 ca         1 O2B      -0.111000
      8 C15         -3.5270   -11.5770    51.5310 ca         1 O2B      -0.111000
      9 C21          0.7340   -10.3180    47.5810 c6         1 O2B       0.147600
     10 C22         -0.3550   -11.3270    47.8960 c6         1 O2B       0.169800
     11 C24         -2.0630   -10.8740    45.3080 c3         1 O2B      -0.113100
     12 C26         -5.0980   -18.5790    48.9880 cc         1 O2B      -0.165000
     13 C1          -3.3920   -16.8700    48.8140 cd         1 O2B       0.354800
     14 N2          -3.2280   -16.9370    47.5230 nc         1 O2B      -0.550100
     15 N7          -1.5040   -14.1310    45.8790 nb         1 O2B      -0.744000
     16 C9          -1.6980   -13.7770    48.2520 ca         1 O2B      -0.239000
     17 C11         -3.5410   -13.8900    50.8340 ca         1 O2B      -0.106300
     18 C12         -4.7830   -13.6780    50.2380 ca         1 O2B      -0.096000
     19 C14         -4.7580   -11.3740    50.9290 ca         1 O2B      -0.101000
     20 C16         -2.9230   -12.8290    51.4850 ca         1 O2B      -0.096000
     21 N17         -0.5710   -12.2160    46.7720 nh         1 O2B      -0.759300
     22 C18         -0.7020   -11.5470    45.4750 c6         1 O2B       0.191500
     23 C19          0.4490   -10.5670    45.3120 c6         1 O2B       0.145600
     24 O20          0.5020    -9.6390    46.3710 os         1 O2B      -0.443000
     25 C23         -1.5470   -15.4150    51.4020 c3         1 O2B      -0.102100
     26 C25         -4.1260   -19.1780    51.5150 cc         1 O2B       0.692900
     27 C27         -4.0660   -17.9270    49.5760 cd         1 O2B       0.348700
     28 N28         -3.5870   -18.2100    50.8220 nd         1 O2B      -0.795000
     29 N30         -5.6650   -19.5980    49.7190 na         1 O2B       0.043200
     30 C31         -5.2230   -19.9310    50.9630 cc         1 O2B      -0.196000
     31 N32         -5.9220   -20.9280    51.4380 nd         1 O2B      -0.082000
     32 N33         -6.8310   -21.2500    50.5000 nd         1 O2B      -0.364700
     33 C34         -6.6850   -20.4590    49.4660 cc         1 O2B       0.341800
     34 C35         -7.4740   -20.4630    48.2150 c3         1 O2B      -0.104400
     35 C36         -2.6180   -18.7970    53.4210 c3         1 O2B       0.237500
     36 C37         -3.1660   -17.5820    54.1610 c3         1 O2B      -0.109600
     37 C38         -1.8940   -19.7560    54.3520 c3         1 O2B      -0.109600
     38 H39         -2.2970   -15.8350    45.0470 h4         1 O2B       0.031100
     39 H41         -3.5870   -15.9600    51.2730 h1         1 O2B       0.091700
     40 H43         -6.3520   -12.2850    49.8140 ha         1 O2B       0.115500
     41 H45         -3.0270   -10.7610    52.0380 ha         1 O2B       0.115500
     42 H50          1.7020   -10.8380    47.5440 h1         1 O2B       0.050700
     43 H51          0.7810    -9.5760    48.3790 h1         1 O2B       0.050700
     44 H52         -1.2800   -10.8150    48.2010 h1         1 O2B       0.046200
     45 H53         -0.0100   -11.9000    48.7580 h1         1 O2B       0.046200
     46 H57         -2.8710   -11.6000    45.4050 hc         1 O2B       0.042367
     47 H58         -2.2230   -10.0870    46.0460 hc         1 O2B       0.042367
     48 H59         -2.1420   -10.4210    44.3190 hc         1 O2B       0.042367
     49 H60         -5.4980   -18.3620    48.0100 h4         1 O2B       0.175000
     50 H40         -1.5730   -13.1500    49.1200 ha         1 O2B       0.133000
     51 H42         -5.2840   -14.4920    49.7270 ha         1 O2B       0.115500
     52 H44         -5.2270   -10.3990    50.9610 ha         1 O2B       0.115000
     53 H46         -1.9590   -12.9630    51.9580 ha         1 O2B       0.115500
     54 H47         -0.5880   -12.3030    44.6990 h1         1 O2B       0.092700
     55 H48          1.3950   -11.1230    45.2460 h1         1 O2B       0.054700
     56 H49          0.3250   -10.0050    44.3850 h1         1 O2B       0.054700
     57 H55         -1.5950   -15.1890    52.4660 hc         1 O2B       0.050033
     58 H56         -1.2100   -16.4450    51.2960 hc         1 O2B       0.050033
     59 H54         -0.7980   -14.7650    50.9490 hc         1 O2B       0.050033
     60 H61         -4.1930   -20.2120    53.2370 hn         1 O2B       0.518000
     61 H63         -8.1920   -21.2780    48.2410 hc         1 O2B       0.063700
     62 H64         -8.0210   -19.5270    48.0900 hc         1 O2B       0.063700
     63 H62         -6.8340   -20.5930    47.3420 hc         1 O2B       0.063700
     64 H65         -1.9200   -18.4540    52.6570 h1         1 O2B       0.078700
     65 H67         -2.3530   -17.0120    54.6080 hc         1 O2B       0.045033
     66 H68         -3.7060   -16.9190    53.4850 hc         1 O2B       0.045033
     67 H66         -3.8490   -17.8830    54.9580 hc         1 O2B       0.045033
     68 H71         -1.0830   -19.2380    54.8640 hc         1 O2B       0.045033
     69 H69         -2.5660   -20.1530    55.1160 hc         1 O2B       0.045033
     70 H70         -1.4660   -20.5940    53.8020 hc         1 O2B       0.045033
     71 N29         -3.6750   -19.5150    52.7250 nu         1 O2B      -0.912100
@<TRIPOS>BOND
     1     1     2 1   
     2     1     6 1   
     3     1    13 1   
     4     2     3 ar  
     5     2    16 ar  
     6     3     4 ar  
     7     3    14 1   
     8     4    15 ar  
     9     4    38 1   
    10     5    15 ar  
    11     5    16 ar  
    12     5    21 1   
    13     6    17 1   
    14     6    25 1   
    15     6    39 1   
    16     7    18 ar  
    17     7    19 ar  
    18     7    40 1   
    19     8    19 ar  
    20     8    20 ar  
    21     8    41 1   
    22     9    10 1   
    23     9    24 1   
    24     9    42 1   
    25     9    43 1   
    26    10    21 1   
    27    10    44 1   
    28    10    45 1   
    29    11    22 1   
    30    11    46 1   
    31    11    47 1   
    32    11    48 1   
    33    12    27 2   
    34    12    29 1   
    35    12    49 1   
    36    13    14 2   
    37    13    27 1   
    38    16    50 1   
    39    17    18 ar  
    40    17    20 ar  
    41    18    51 1   
    42    19    52 1   
    43    20    53 1   
    44    21    22 1   
    45    22    23 1   
    46    22    54 1   
    47    23    24 1   
    48    23    55 1   
    49    23    56 1   
    50    25    57 1   
    51    25    58 1   
    52    25    59 1   
    53    26    28 2   
    54    26    30 1   
    55    26    71 1   
    56    27    28 1   
    57    29    30 1   
    58    29    33 1   
    59    30    31 2   
    60    31    32 1   
    61    32    33 2   
    62    33    34 1   
    63    34    61 1   
    64    34    62 1   
    65    34    63 1   
    66    35    36 1   
    67    35    37 1   
    68    35    64 1   
    69    35    71 1   
    70    36    65 1   
    71    36    66 1   
    72    36    67 1   
    73    37    68 1   
    74    37    69 1   
    75    37    70 1   
    76    60    71 1   
@<TRIPOS>SUBSTRUCTURE
     1 O2B         1 TEMP              0 ****  ****    0 ROOT
