@<TRIPOS>MOLECULE
O2D
   31    32     1     0     0
SMALL
No Charge or Current Charge


@<TRIPOS>ATOM
      1 N1           1.3400     0.6960     0.5210 ns         1 O2D      -0.424200
      2 N3           4.1980    -1.4330     0.2380 nc         1 O2D      -0.351500
      3 C4          -1.9490    -0.6300     0.4970 c6         1 O2D      -0.072900
      4 C5          -3.1570    -1.5820     0.3140 c6         1 O2D      -0.073400
      5 C6          -4.4980    -0.8270     0.4770 c6         1 O2D      -0.075400
      6 C7          -4.5820     0.3750    -0.4940 c6         1 O2D      -0.073400
      7 C8          -3.3760     1.3290    -0.3100 c6         1 O2D      -0.072900
      8 C10          3.8150     0.7310     0.1670 cd         1 O2D       0.388900
      9 C1           0.5390     0.9070    -0.5900 c          1 O2D       0.607100
     10 C2          -0.8190     1.5560    -0.2990 c3         1 O2D      -0.151400
     11 C3          -2.0240     0.5810    -0.4780 c6         1 O2D      -0.056700
     12 C9           2.8930    -1.2600     0.4190 cd         1 O2D       0.388900
     13 N2           2.6200     0.0880     0.3900 na         1 O2D      -0.234300
     14 N4           4.7780    -0.1810     0.0800 nc         1 O2D      -0.351500
     15 O1           0.8960     0.6210    -1.7250 o          1 O2D      -0.546100
     16 H1           0.9960     0.9610     1.4410 hn         1 O2D       0.348500
     17 H3          -1.0210    -1.1950     0.3360 hc         1 O2D       0.037950
     18 H4          -3.1140    -2.0480    -0.6800 hc         1 O2D       0.043950
     19 H5          -3.1000    -2.4010     1.0440 hc         1 O2D       0.043950
     20 H6          -5.3370    -1.5120     0.2970 hc         1 O2D       0.041200
     21 H7          -4.6010    -0.4730     1.5130 hc         1 O2D       0.041200
     22 H8          -4.6120     0.0110    -1.5310 hc         1 O2D       0.043950
     23 H9          -5.5200     0.9230    -0.3290 hc         1 O2D       0.043950
     24 H10         -3.4460     2.1490    -1.0390 hc         1 O2D       0.037950
     25 H11         -3.4250     1.7930     0.6850 hc         1 O2D       0.037950
     26 H12          3.9080     1.8070     0.0850 h5         1 O2D       0.069100
     27 H13         -0.8260     1.9490     0.7250 hc         1 O2D       0.066200
     28 H14         -0.9370     2.3940    -0.9970 hc         1 O2D       0.066200
     29 H15         -1.9680     0.2010    -1.5100 hc         1 O2D       0.071700
     30 H16          2.1360    -2.0200     0.5690 h5         1 O2D       0.069100
     31 H2          -1.9200    -0.2710     1.5360 hc         1 O2D       0.037950
@<TRIPOS>BOND
     1     1     9 1   
     2     1    13 1   
     3     1    16 1   
     4     2    12 2   
     5     2    14 1   
     6     3     4 1   
     7     3    11 1   
     8     3    17 1   
     9     3    31 1   
    10     4     5 1   
    11     4    18 1   
    12     4    19 1   
    13     5     6 1   
    14     5    20 1   
    15     5    21 1   
    16     6     7 1   
    17     6    22 1   
    18     6    23 1   
    19     7    11 1   
    20     7    24 1   
    21     7    25 1   
    22     8    13 1   
    23     8    14 2   
    24     8    26 1   
    25     9    10 1   
    26     9    15 2   
    27    10    11 1   
    28    10    27 1   
    29    10    28 1   
    30    11    29 1   
    31    12    13 1   
    32    12    30 1   
@<TRIPOS>SUBSTRUCTURE
     1 O2D         1 TEMP              0 ****  ****    0 ROOT
