@<TRIPOS>MOLECULE
O2D
   31    32     1     0     0
SMALL
abcg2


@<TRIPOS>ATOM
      1 N1           1.3120     0.7390     0.5270 ns         1 O2D      -0.424200
      2 N3           4.0270    -1.4130     0.2130 nc         1 O2D      -0.351500
      3 C4          -1.9160    -0.6280     0.4660 c6         1 O2D      -0.072900
      4 C5          -3.1090    -1.5640     0.2950 c6         1 O2D      -0.073400
      5 C6          -4.4290    -0.8210     0.4670 c6         1 O2D      -0.075400
      6 C7          -4.5110     0.3670    -0.4850 c6         1 O2D      -0.073400
      7 C8          -3.3190     1.3030    -0.3090 c6         1 O2D      -0.072900
      8 C10          3.7100     0.7130     0.1420 cd         1 O2D       0.388900
      9 C1           0.5020     0.8830    -0.5630 c          1 O2D       0.607100
     10 C2          -0.8220     1.5360    -0.2700 c3         1 O2D      -0.151400
     11 C3          -1.9910     0.5680    -0.4830 c6         1 O2D      -0.056700
     12 C9           2.7650    -1.2050     0.4270 cd         1 O2D       0.388900
     13 N2           2.5150     0.1270     0.4020 na         1 O2D      -0.234300
     14 N4           4.6240    -0.1990     0.0330 nc         1 O2D      -0.351500
     15 O1           0.8410     0.4940    -1.6600 o          1 O2D      -0.546100
     16 H1           1.0350     1.0140     1.4580 hn         1 O2D       0.348500
     17 H3          -0.9900    -1.1900     0.3140 hc         1 O2D       0.037950
     18 H4          -3.0750    -2.0150    -0.7030 hc         1 O2D       0.043950
     19 H5          -3.0390    -2.3880     1.0090 hc         1 O2D       0.043950
     20 H6          -5.2690    -1.5000     0.3020 hc         1 O2D       0.041200
     21 H7          -4.5150    -0.4660     1.5000 hc         1 O2D       0.041200
     22 H8          -4.5300    -0.0000    -1.5170 hc         1 O2D       0.043950
     23 H9          -5.4430     0.9160    -0.3340 hc         1 O2D       0.043950
     24 H10         -3.3810     2.1310    -1.0200 hc         1 O2D       0.037950
     25 H11         -3.3510     1.7500     0.6930 hc         1 O2D       0.037950
     26 H12          3.8400     1.7800     0.0550 h5         1 O2D       0.069100
     27 H13         -0.8500     1.9310     0.7490 hc         1 O2D       0.066200
     28 H14         -0.9180     2.3880    -0.9470 hc         1 O2D       0.066200
     29 H15         -1.9420     0.1960    -1.5140 hc         1 O2D       0.071700
     30 H16          2.0050    -1.9490     0.6080 h5         1 O2D       0.069100
     31 H2          -1.8900    -0.2580     1.4980 hc         1 O2D       0.037950
@<TRIPOS>BOND
     1     1     9 1   
     2     1    13 1   
     3     1    16 1   
     4     2    12 2   
     5     2    14 1   
     6     3     4 1   
     7     3    11 1   
     8     3    17 1   
     9     3    31 1   
    10     4     5 1   
    11     4    18 1   
    12     4    19 1   
    13     5     6 1   
    14     5    20 1   
    15     5    21 1   
    16     6     7 1   
    17     6    22 1   
    18     6    23 1   
    19     7    11 1   
    20     7    24 1   
    21     7    25 1   
    22     8    13 1   
    23     8    14 2   
    24     8    26 1   
    25     9    10 1   
    26     9    15 2   
    27    10    11 1   
    28    10    27 1   
    29    10    28 1   
    30    11    29 1   
    31    12    13 1   
    32    12    30 1   
@<TRIPOS>SUBSTRUCTURE
     1 O2D         1 TEMP              0 ****  ****    0 ROOT
