@<TRIPOS>MOLECULE
O2E
   69    71     1     0     0
SMALL
No Charge or Current Charge


@<TRIPOS>ATOM
      1 C11         17.5340   -30.9120    51.1190 c5         1 O2E      -0.024000
      2 C18         25.1410   -32.1780    53.2130 ca         1 O2E      -0.137600
      3 C17         24.1750   -32.9250    52.4930 ca         1 O2E      -0.109000
      4 C6          13.9410   -28.9900    48.7960 c3         1 O2E       0.199300
      5 O6          14.5350   -32.4940    52.6850 o          1 O2E      -0.691000
      6 C5          15.4120   -29.0420    49.3020 c3         1 O2E      -0.145700
      7 O5          16.3820   -31.8680    53.5640 o          1 O2E      -0.691000
      8 C16         22.8240   -32.9610    52.9060 ca         1 O2E      -0.058000
      9 O4          13.1620   -29.9910    49.4440 oh         1 O2E      -0.661000
     10 C2          14.7000   -28.2230    52.9500 c3         1 O2E       0.180600
     11 C1          15.5440   -28.2890    50.6430 c          1 O2E       0.609100
     12 C12         18.3880   -33.5750    50.6230 c5         1 O2E       0.041300
     13 C21         23.3820   -31.4980    54.7750 ca         1 O2E      -0.131000
     14 C22         22.4390   -32.2430    54.0520 ca         1 O2E      -0.149000
     15 C20         24.7230   -31.4650    54.3610 ca         1 O2E      -0.117000
     16 C7          13.8080   -29.1790    47.2700 c3         1 O2E      -0.090100
     17 C8          16.0920   -30.4580    49.2290 c5         1 O2E       0.109500
     18 C9          16.1720   -31.6110    51.1790 ce         1 O2E       0.372300
     19 C13         18.1350   -34.7320    51.6260 c5         1 O2E       0.177800
     20 C14         20.3670   -35.0300    50.8390 c5         1 O2E       0.085500
     21 O7          27.3970   -31.4800    53.4070 o          1 O2E      -0.736500
     22 O1          16.1150   -27.2130    50.7390 o          1 O2E      -0.474000
     23 O2          14.8370   -28.8770    51.6640 os         1 O2E      -0.462100
     24 CA          16.0210   -28.3240    53.7810 c3         1 O2E       0.028500
     25 C           15.7050   -28.5080    55.3020 c          1 O2E       0.586900
     26 O           14.7150   -28.0460    55.8670 o          1 O2E      -0.556100
     27 N           16.9850   -27.1990    53.4680 n8         1 O2E      -1.006200
     28 N2          15.4070   -31.4280    50.1290 n2         1 O2E      -0.608900
     29 S1          18.9810   -32.0460    51.5520 ss         1 O2E      -0.336000
     30 N3          19.4940   -35.1200    52.0670 n7         1 O2E      -0.861400
     31 O8          26.9210   -32.7870    51.7730 o          1 O2E      -0.736500
     32 C23         19.5820   -34.1450    49.8090 c5         1 O2E      -0.064400
     33 C24         17.6040   -30.5740    49.6060 c5         1 O2E      -0.092700
     34 C25         18.5270   -29.3910    49.2290 c3         1 O2E      -0.078100
     35 H1          17.5510   -30.0140    51.7460 h1         1 O2E       0.124700
     36 H3          13.5340   -27.9980    49.0340 h1         1 O2E       0.016700
     37 H5          15.9650   -28.4090    48.5970 hc         1 O2E       0.066700
     38 H6          13.8360   -30.6310    49.7970 ho         1 O2E       0.475000
     39 H7          14.3910   -27.1740    52.8410 h1         1 O2E       0.062700
     40 H8          13.9010   -28.7330    53.5040 h1         1 O2E       0.062700
     41 H9          17.5210   -33.3750    49.9850 h1         1 O2E       0.049700
     42 H10         23.0740   -30.9450    55.6590 ha         1 O2E       0.081000
     43 H11         21.4020   -32.2580    54.3830 ha         1 O2E       0.133000
     44 H12         25.4370   -30.8810    54.9370 ha         1 O2E       0.111000
     45 H13         14.3940   -28.4230    46.7340 hc         1 O2E       0.034367
     46 H14         14.1550   -30.1700    46.9560 hc         1 O2E       0.034367
     47 H15         12.7610   -29.0720    46.9620 hc         1 O2E       0.034367
     48 H16         15.9790   -30.8040    48.1920 h1         1 O2E       0.060700
     49 H17         17.5020   -34.4300    52.4710 h1         1 O2E       0.039700
     50 H18         17.6430   -35.5750    51.1190 h1         1 O2E       0.039700
     51 H19         20.5020   -36.0360    50.4170 h1         1 O2E       0.036700
     52 H20         16.5080   -29.2620    53.4890 h1         1 O2E       0.069700
     53 H21         16.4550   -29.1040    55.8680 h4         1 O2E      -0.011800
     54 H22         17.9490   -27.4680    53.7120 hn         1 O2E       0.435500
     55 H23         17.0200   -27.0550    52.4460 hn         1 O2E       0.435500
     56 H25         19.4920   -36.0720    52.4600 hn         1 O2E       0.417000
     57 H29         20.1930   -33.3550    49.3550 hc         1 O2E       0.053700
     58 H30         19.2170   -34.7670    48.9840 hc         1 O2E       0.053700
     59 H31         18.0110   -31.4210    49.0440 hc         1 O2E       0.039700
     60 H32         19.5750   -29.6330    49.4450 hc         1 O2E       0.031700
     61 H33         18.4540   -29.1610    48.1590 hc         1 O2E       0.031700
     62 H34         18.2810   -28.4830    49.7890 hc         1 O2E       0.031700
     63 C10         15.6660   -32.0250    52.5800 c          1 O2E       0.645700
     64 C15         21.8130   -34.4320    51.0480 c          1 O2E       0.601100
     65 O9          22.7850   -34.6170    50.3180 o          1 O2E      -0.624100
     66 N4          21.8140   -33.6940    52.2230 ns         1 O2E      -0.106000
     67 C19         26.5970   -32.1460    52.7630 c          1 O2E       0.715600
     68 H27         20.9050   -33.6770    52.6710 hn         1 O2E       0.192000
     69 H2          24.4940   -33.4770    51.6140 ha         1 O2E       0.150000
@<TRIPOS>BOND
     1     1    18 1   
     2     1    29 1   
     3     1    33 1   
     4     1    35 1   
     5     2     3 ar  
     6     2    15 ar  
     7     2    67 1   
     8     3     8 ar  
     9     3    69 1   
    10     4     6 1   
    11     4     9 1   
    12     4    16 1   
    13     4    36 1   
    14     5    63 1   
    15     6    11 1   
    16     6    17 1   
    17     6    37 1   
    18     7    63 1   
    19     8    14 ar  
    20     8    66 1   
    21     9    38 1   
    22    10    23 1   
    23    10    24 1   
    24    10    39 1   
    25    10    40 1   
    26    11    22 2   
    27    11    23 1   
    28    12    19 1   
    29    12    29 1   
    30    12    32 1   
    31    12    41 1   
    32    13    14 ar  
    33    13    15 ar  
    34    13    42 1   
    35    14    43 1   
    36    15    44 1   
    37    16    45 1   
    38    16    46 1   
    39    16    47 1   
    40    17    28 1   
    41    17    33 1   
    42    17    48 1   
    43    18    28 2   
    44    18    63 1   
    45    19    30 1   
    46    19    49 1   
    47    19    50 1   
    48    20    30 1   
    49    20    32 1   
    50    20    51 1   
    51    20    64 1   
    52    21    67 1   
    53    24    25 1   
    54    24    27 1   
    55    24    52 1   
    56    25    26 2   
    57    25    53 1   
    58    27    54 1   
    59    27    55 1   
    60    30    56 1   
    61    31    67 1   
    62    32    57 1   
    63    32    58 1   
    64    33    34 1   
    65    33    59 1   
    66    34    60 1   
    67    34    61 1   
    68    34    62 1   
    69    64    65 2   
    70    64    66 1   
    71    66    68 1   
@<TRIPOS>SUBSTRUCTURE
     1 O2E         1 TEMP              0 ****  ****    0 ROOT
