@<TRIPOS>MOLECULE
O2E
   69    71     1     0     0
SMALL
bcc


@<TRIPOS>ATOM
      1 C11         18.2950   -30.6930    49.9720 c5         1 O2E      -0.071900
      2 C18         24.2930   -32.7180    54.3330 ca         1 O2E      -0.137600
      3 C17         23.5890   -33.2490    53.2550 ca         1 O2E      -0.127000
      4 C6          13.6000   -29.5360    49.9220 c3         1 O2E       0.176100
      5 O6          18.0680   -32.2480    53.2020 o          1 O2E      -0.796300
      6 C5          15.1250   -29.3520    49.7700 c3         1 O2E      -0.145700
      7 O5          19.0840   -30.2880    52.8070 o          1 O2E      -0.796300
      8 C16         22.1940   -33.2540    53.2480 ca         1 O2E       0.034600
      9 O4          13.2410   -30.4180    50.9600 oh         1 O2E      -0.598800
     10 C2          15.3270   -27.2740    52.8560 c3         1 O2E       0.157400
     11 C1          15.7370   -28.3850    50.7630 c          1 O2E       0.658100
     12 C12         19.2470   -33.2470    48.9800 c5         1 O2E      -0.006600
     13 C21         22.2080   -32.1970    55.4130 ca         1 O2E      -0.149000
     14 C22         21.5060   -32.7220    54.3420 ca         1 O2E      -0.167000
     15 C20         23.5960   -32.1890    55.4130 ca         1 O2E      -0.135000
     16 C7          12.9900   -30.0750    48.6390 c3         1 O2E      -0.090100
     17 C8          15.8950   -30.6940    49.7830 c5         1 O2E       0.109500
     18 C9          17.5590   -31.0330    51.2400 ce         1 O2E       0.372300
     19 C13         18.3870   -34.0870    49.9120 c5         1 O2E       0.177800
     20 C14         20.6330   -34.8250    50.1840 c5         1 O2E       0.085500
     21 O7          26.3860   -32.1630    55.2800 o          1 O2E      -0.841800
     22 O1          16.7520   -27.7690    50.5610 o          1 O2E      -0.523000
     23 O2          15.0240   -28.2790    51.8790 os         1 O2E      -0.438900
     24 CA          16.2220   -27.7810    53.9760 c3         1 O2E       0.028500
     25 C           15.9730   -27.0030    55.2530 c          1 O2E       0.586900
     26 O           14.9900   -26.3550    55.4980 o          1 O2E      -0.556100
     27 N           17.6370   -27.6690    53.6700 n8         1 O2E      -0.895800
     28 N2          16.2930   -31.0390    51.1470 n2         1 O2E      -0.608900
     29 S1          19.8080   -31.6550    49.6640 ss         1 O2E      -0.240200
     30 N3          19.3400   -34.6830    50.8380 n7         1 O2E      -0.806200
     31 O8          26.3720   -33.2840    53.3520 o          1 O2E      -0.841800
     32 C23         20.4820   -34.1340    48.8180 c5         1 O2E      -0.064400
     33 C24         17.1870   -30.7790    48.9230 c5         1 O2E      -0.092700
     34 C25         17.3500   -29.8180    47.7620 c3         1 O2E      -0.078100
     35 H1          18.6770   -29.6710    50.0600 h1         1 O2E       0.124700
     36 H3          13.1630   -28.5410    50.0920 h1         1 O2E       0.016700
     37 H5          15.2750   -28.8850    48.7930 hc         1 O2E       0.066700
     38 H6          13.6330   -30.0990    51.7790 ho         1 O2E       0.436000
     39 H7          15.7740   -26.3970    52.3850 h1         1 O2E       0.062700
     40 H8          14.3540   -26.9950    53.2570 h1         1 O2E       0.062700
     41 H9          18.7560   -33.0760    48.0230 h1         1 O2E       0.049700
     42 H10         21.6610   -31.7870    56.2540 ha         1 O2E       0.099000
     43 H11         20.4220   -32.7130    54.3430 ha         1 O2E       0.151000
     44 H12         24.1370   -31.7740    56.2520 ha         1 O2E       0.129000
     45 H13         13.1870   -29.3950    47.8100 hc         1 O2E       0.034367
     46 H14         13.3880   -31.0550    48.3740 hc         1 O2E       0.034367
     47 H15         11.9090   -30.1700    48.7410 hc         1 O2E       0.034367
     48 H16         15.1940   -31.4550    49.4330 h1         1 O2E       0.060700
     49 H17         17.6250   -33.5160    50.4420 h1         1 O2E       0.039700
     50 H18         17.8660   -34.8360    49.3030 h1         1 O2E       0.039700
     51 H19         20.8970   -35.8760    50.0300 h1         1 O2E       0.036700
     52 H20         15.9060   -28.8120    54.2230 h1         1 O2E       0.069700
     53 H21         16.7880   -27.0990    55.9960 h4         1 O2E      -0.011800
     54 H22         18.1770   -27.8920    54.4990 hn         1 O2E       0.380300
     55 H23         17.9120   -28.3790    53.0010 hn         1 O2E       0.380300
     56 H25         19.0030   -35.5590    51.2120 hn         1 O2E       0.361800
     57 H29         21.3770   -33.5980    48.5000 hc         1 O2E       0.053700
     58 H30         20.2690   -34.8790    48.0500 hc         1 O2E       0.053700
     59 H31         17.1790   -31.7900    48.5090 hc         1 O2E       0.039700
     60 H32         18.2590   -30.0560    47.2080 hc         1 O2E       0.031700
     61 H33         16.5140   -29.8900    47.0650 hc         1 O2E       0.031700
     62 H34         17.4280   -28.7840    48.0970 hc         1 O2E       0.031700
     63 C10         18.3030   -31.2230    52.5450 c          1 O2E       0.856300
     64 C15         21.7880   -34.2490    51.0070 c          1 O2E       0.668100
     65 O9          22.9270   -34.2770    50.5660 o          1 O2E      -0.624100
     66 N4          21.4180   -33.7830    52.2130 ns         1 O2E      -0.432100
     67 C19         25.8230   -32.7220    54.3190 c          1 O2E       0.926200
     68 H27         20.4080   -33.7930    52.3400 hn         1 O2E       0.358500
     69 H2          24.1430   -33.6570    52.4260 ha         1 O2E       0.168000
@<TRIPOS>BOND
     1     1    18 1   
     2     1    29 1   
     3     1    33 1   
     4     1    35 1   
     5     2     3 ar  
     6     2    15 ar  
     7     2    67 1   
     8     3     8 ar  
     9     3    69 1   
    10     4     6 1   
    11     4     9 1   
    12     4    16 1   
    13     4    36 1   
    14     5    63 1   
    15     6    11 1   
    16     6    17 1   
    17     6    37 1   
    18     7    63 1   
    19     8    14 ar  
    20     8    66 1   
    21     9    38 1   
    22    10    23 1   
    23    10    24 1   
    24    10    39 1   
    25    10    40 1   
    26    11    22 2   
    27    11    23 1   
    28    12    19 1   
    29    12    29 1   
    30    12    32 1   
    31    12    41 1   
    32    13    14 ar  
    33    13    15 ar  
    34    13    42 1   
    35    14    43 1   
    36    15    44 1   
    37    16    45 1   
    38    16    46 1   
    39    16    47 1   
    40    17    28 1   
    41    17    33 1   
    42    17    48 1   
    43    18    28 2   
    44    18    63 1   
    45    19    30 1   
    46    19    49 1   
    47    19    50 1   
    48    20    30 1   
    49    20    32 1   
    50    20    51 1   
    51    20    64 1   
    52    21    67 1   
    53    24    25 1   
    54    24    27 1   
    55    24    52 1   
    56    25    26 2   
    57    25    53 1   
    58    27    54 1   
    59    27    55 1   
    60    30    56 1   
    61    31    67 1   
    62    32    57 1   
    63    32    58 1   
    64    33    34 1   
    65    33    59 1   
    66    34    60 1   
    67    34    61 1   
    68    34    62 1   
    69    64    65 2   
    70    64    66 1   
    71    66    68 1   
@<TRIPOS>SUBSTRUCTURE
     1 O2E         1 TEMP              0 ****  ****    0 ROOT
