@<TRIPOS>MOLECULE
O2F
   52    53     1     0     0
SMALL
No Charge or Current Charge


@<TRIPOS>ATOM
      1 C1          16.9870     4.1220    20.9590 c3         1 O2F       0.081300
      2 C2          18.3070     2.6010    22.4430 c3         1 O2F       0.081300
      3 C3          19.4920     4.7130    19.3690 c5         1 O2F       0.070500
      4 C4          18.7890     6.3140    17.8550 c5         1 O2F       0.150800
      5 C5          19.6660     6.0680    20.1340 c5         1 O2F      -0.098400
      6 C7          18.2060     8.8880    21.0890 c5         1 O2F       0.012000
      7 C11         14.9010     9.3680    21.5320 c3         1 O2F      -0.175700
      8 C15         17.4070     8.8650    22.4240 c5         1 O2F      -0.077700
      9 C16         17.0490     7.4770    23.0130 c3         1 O2F      -0.068100
     10 N           18.3050     3.5400    21.2990 n          1 O2F      -0.410800
     11 C           19.3600     3.4620    20.3450 c          1 O2F       0.611100
     12 O           20.1580     2.5290    20.3640 o          1 O2F      -0.626100
     13 C10         16.2470     9.8960    22.1550 c5         1 O2F       0.115500
     14 C12         14.4620    10.1920    20.3120 c          1 O2F       0.601900
     15 C13         13.7260     9.3350    22.5490 c3         1 O2F       0.172300
     16 C14         12.4130     8.7670    21.9670 c3         1 O2F      -0.127100
     17 C6          19.0780     7.1360    19.1460 c5         1 O2F       0.047300
     18 C8          17.9310    10.3430    20.7010 ce         1 O2F       0.379300
     19 N1          18.4000     4.9860    18.3790 n7         1 O2F      -0.834400
     20 N2          16.8900    10.9070    21.2660 n2         1 O2F      -0.594900
     21 O1          20.0670    10.4560    19.6060 o          1 O2F      -0.697500
     22 O2          18.9440    12.2740    19.7100 o          1 O2F      -0.697500
     23 O3          14.3190     9.7220    19.1870 o          1 O2F      -0.514100
     24 O4          14.0790     8.5410    23.6800 oh         1 O2F      -0.661000
     25 S           17.4320     7.7280    19.8200 ss         1 O2F      -0.468000
     26 H7          16.2460     3.8700    21.7290 h1         1 O2F       0.043367
     27 H8          17.0550     5.2110    20.8990 h1         1 O2F       0.043367
     28 H6          16.6360     3.7180    20.0010 h1         1 O2F       0.043367
     29 H11         17.9660     1.6120    22.1120 h1         1 O2F       0.043367
     30 H9          19.3190     2.5150    22.8590 h1         1 O2F       0.043367
     31 H10         17.6390     2.9660    23.2350 h1         1 O2F       0.043367
     32 H           20.4180     4.5170    18.8080 h1         1 O2F       0.089700
     33 H13         19.6910     6.2380    17.2300 h1         1 O2F       0.068200
     34 H14         17.9970     6.7680    17.2410 h1         1 O2F       0.068200
     35 H16         20.7250     6.2580    20.3420 hc         1 O2F       0.059700
     36 H15         19.1600     6.0810    21.1040 hc         1 O2F       0.059700
     37 H2          19.2700     8.6690    21.2450 h1         1 O2F       0.094700
     38 H18         15.0420     8.3490    21.1640 hc         1 O2F       0.080700
     39 H5          18.0570     9.3090    23.1890 hc         1 O2F       0.048700
     40 H25         16.6160     7.5790    24.0140 hc         1 O2F       0.031700
     41 H24         16.3300     6.9290    22.3950 hc         1 O2F       0.031700
     42 H26         17.9450     6.8530    23.1110 hc         1 O2F       0.031700
     43 H3          15.9910    10.3940    23.1020 h1         1 O2F       0.059700
     44 H19         14.2500    11.2670    20.5110 h4         1 O2F      -0.009800
     45 H4          13.5300    10.3660    22.8780 h1         1 O2F       0.030700
     46 H20         11.6360     8.7190    22.7400 hc         1 O2F       0.039367
     47 H22         12.0290     9.3980    21.1570 hc         1 O2F       0.039367
     48 H21         12.5650     7.7550    21.5720 hc         1 O2F       0.039367
     49 H1          19.7580     7.9770    18.9510 h1         1 O2F       0.130700
     50 H12         17.5250     5.1230    18.8970 hn         1 O2F       0.405000
     51 H23         13.3160     8.5660    24.2960 ho         1 O2F       0.428000
     52 C9          19.0640    11.0740    19.9490 c          1 O2F       0.638700
@<TRIPOS>BOND
     1     1    10 1   
     2     1    26 1   
     3     1    27 1   
     4     1    28 1   
     5     2    10 1   
     6     2    29 1   
     7     2    30 1   
     8     2    31 1   
     9     3     5 1   
    10     3    11 1   
    11     3    19 1   
    12     3    32 1   
    13     4    17 1   
    14     4    19 1   
    15     4    33 1   
    16     4    34 1   
    17     5    17 1   
    18     5    35 1   
    19     5    36 1   
    20     6     8 1   
    21     6    18 1   
    22     6    25 1   
    23     6    37 1   
    24     7    13 1   
    25     7    14 1   
    26     7    15 1   
    27     7    38 1   
    28     8     9 1   
    29     8    13 1   
    30     8    39 1   
    31     9    40 1   
    32     9    41 1   
    33     9    42 1   
    34    10    11 1   
    35    11    12 2   
    36    13    20 1   
    37    13    43 1   
    38    14    23 2   
    39    14    44 1   
    40    15    16 1   
    41    15    24 1   
    42    15    45 1   
    43    16    46 1   
    44    16    47 1   
    45    16    48 1   
    46    17    25 1   
    47    17    49 1   
    48    18    20 2   
    49    18    52 1   
    50    19    50 1   
    51    21    52 1   
    52    22    52 1   
    53    24    51 1   
@<TRIPOS>SUBSTRUCTURE
     1 O2F         1 TEMP              0 ****  ****    0 ROOT
