@<TRIPOS>MOLECULE
O2F
   52    53     1     0     0
SMALL
abcg2


@<TRIPOS>ATOM
      1 C1          17.2770     4.0820    21.1470 c3         1 O2F       0.081300
      2 C2          18.4230     2.0830    21.9880 c3         1 O2F       0.081300
      3 C3          19.7250     4.7190    19.5170 c5         1 O2F       0.070500
      4 C4          18.8190     6.1310    17.9320 c5         1 O2F       0.150800
      5 C5          19.7910     6.1370    20.1660 c5         1 O2F      -0.098400
      6 C7          18.0460     8.7940    21.1280 c5         1 O2F       0.012000
      7 C11         14.8020     9.5440    21.6220 c3         1 O2F      -0.175700
      8 C15         17.1950     8.7290    22.4120 c5         1 O2F      -0.077700
      9 C16         16.6650     7.3670    22.8230 c3         1 O2F      -0.068100
     10 N           18.4820     3.2620    21.1310 n          1 O2F      -0.410800
     11 C           19.6370     3.5500    20.4950 c          1 O2F       0.611100
     12 O           20.6580     2.8750    20.6800 o          1 O2F      -0.626100
     13 C10         16.2000     9.9050    22.2140 c5         1 O2F       0.115500
     14 C12         14.4860    10.4620    20.4630 c          1 O2F       0.601900
     15 C13         13.6810     9.6800    22.6630 c3         1 O2F       0.172300
     16 C14         12.3230     9.2680    22.1130 c3         1 O2F      -0.127100
     17 C6          19.0930     7.0560    19.1390 c5         1 O2F       0.047300
     18 C8          17.8670    10.2360    20.7240 ce         1 O2F       0.379300
     19 N1          18.7060     4.7660    18.4560 n7         1 O2F      -0.834400
     20 N2          16.8910    10.8290    21.2900 n2         1 O2F      -0.594900
     21 O1          19.9370    10.4320    19.6230 o          1 O2F      -0.697500
     22 O2          18.3080    11.8730    19.0480 o          1 O2F      -0.697500
     23 O3          14.4240    10.1040    19.3080 o          1 O2F      -0.514100
     24 O4          14.0400     8.8740    23.7900 oh         1 O2F      -0.661000
     25 S           17.4920     7.7310    19.7240 ss         1 O2F      -0.468000
     26 H7          16.9270     4.1680    22.1760 h1         1 O2F       0.043367
     27 H8          17.4620     5.0860    20.7860 h1         1 O2F       0.043367
     28 H6          16.4840     3.6220    20.5510 h1         1 O2F       0.043367
     29 H11         19.1490     1.3480    21.6550 h1         1 O2F       0.043367
     30 H9          18.6340     2.3450    23.0290 h1         1 O2F       0.043367
     31 H10         17.4200     1.6600    21.9310 h1         1 O2F       0.043367
     32 H           20.6790     4.5520    19.0170 h1         1 O2F       0.089700
     33 H13         19.6780     6.1800    17.2570 h1         1 O2F       0.068200
     34 H14         17.9290     6.4030    17.3650 h1         1 O2F       0.068200
     35 H16         20.8280     6.4330    20.3170 hc         1 O2F       0.059700
     36 H15         19.3000     6.1700    21.1360 hc         1 O2F       0.059700
     37 H2          19.0850     8.5350    21.3060 h1         1 O2F       0.094700
     38 H18         14.8100     8.5260    21.2310 hc         1 O2F       0.080700
     39 H5          17.8730     9.0680    23.2020 hc         1 O2F       0.048700
     40 H25         16.1430     7.4360    23.7760 hc         1 O2F       0.031700
     41 H24         15.9760     6.9510    22.0890 hc         1 O2F       0.031700
     42 H26         17.4940     6.6660    22.9260 hc         1 O2F       0.031700
     43 H3          16.0330    10.4270    23.1560 h1         1 O2F       0.059700
     44 H19         14.2780    11.5130    20.7330 h4         1 O2F      -0.009800
     45 H4          13.6430    10.7320    22.9750 h1         1 O2F       0.030700
     46 H20         11.5650     9.3390    22.8950 hc         1 O2F       0.039367
     47 H22         12.0150     9.9180    21.2900 hc         1 O2F       0.039367
     48 H21         12.3560     8.2390    21.7490 hc         1 O2F       0.039367
     49 H1          19.7110     7.9080    18.8650 h1         1 O2F       0.130700
     50 H12         17.7780     4.6410    18.8390 hn         1 O2F       0.405000
     51 H23         13.3950     9.0420    24.4890 ho         1 O2F       0.428000
     52 C9          18.7790    10.9140    19.6980 c          1 O2F       0.638700
@<TRIPOS>BOND
     1     1    10 1   
     2     1    26 1   
     3     1    27 1   
     4     1    28 1   
     5     2    10 1   
     6     2    29 1   
     7     2    30 1   
     8     2    31 1   
     9     3     5 1   
    10     3    11 1   
    11     3    19 1   
    12     3    32 1   
    13     4    17 1   
    14     4    19 1   
    15     4    33 1   
    16     4    34 1   
    17     5    17 1   
    18     5    35 1   
    19     5    36 1   
    20     6     8 1   
    21     6    18 1   
    22     6    25 1   
    23     6    37 1   
    24     7    13 1   
    25     7    14 1   
    26     7    15 1   
    27     7    38 1   
    28     8     9 1   
    29     8    13 1   
    30     8    39 1   
    31     9    40 1   
    32     9    41 1   
    33     9    42 1   
    34    10    11 1   
    35    11    12 2   
    36    13    20 1   
    37    13    43 1   
    38    14    23 2   
    39    14    44 1   
    40    15    16 1   
    41    15    24 1   
    42    15    45 1   
    43    16    46 1   
    44    16    47 1   
    45    16    48 1   
    46    17    25 1   
    47    17    49 1   
    48    18    20 2   
    49    18    52 1   
    50    19    50 1   
    51    21    52 1   
    52    22    52 1   
    53    24    51 1   
@<TRIPOS>SUBSTRUCTURE
     1 O2F         1 TEMP              0 ****  ****    0 ROOT
