@<TRIPOS>MOLECULE
O2H
   72    76     1     0     0
SMALL
abcg2


@<TRIPOS>ATOM
      1 C1         -19.6430    28.8900    33.1300 c3         1 O2H      -0.062400
      2 C2         -18.1320    28.7410    32.9770 c3         1 O2H      -0.103700
      3 C3         -17.3030    29.7460    33.7190 c2         1 O2H       0.634600
      4 O4          -9.6130    34.5620    38.4060 os         1 O2H      -0.336100
      5 C7         -15.0890    32.8610    36.8510 ca         1 O2H      -0.031000
      6 C8         -14.6520    32.2300    35.6840 ca         1 O2H      -0.106000
      7 C9         -15.5350    31.4620    34.9350 ca         1 O2H      -0.126300
      8 C10        -15.1350    30.8270    33.6210 c6         1 O2H       0.243300
      9 C11        -13.7240    30.2630    33.6130 c3         1 O2H      -0.097600
     10 C12        -15.3540    31.8060    32.4670 c3         1 O2H      -0.097600
     11 C13        -12.9820    34.0690    37.4510 c          1 O2H       0.613100
     12 C14        -12.3930    34.8740    38.6070 c3         1 O2H      -0.195700
     13 C15        -11.4810    35.9660    38.1250 ca         1 O2H       0.332300
     14 C16        -10.0880    35.7710    38.0360 ca         1 O2H       0.127100
     15 C19        -11.2910    38.1260    37.3370 ca         1 O2H       0.308900
     16 C20         -8.6620    39.1680    35.5910 ca         1 O2H       0.193100
     17 C21         -8.8980    38.2330    34.6100 ca         1 O2H      -0.266000
     18 C22         -8.3090    38.4390    33.3500 ca         1 O2H       0.389900
     19 C24         -7.8520    40.2950    35.3070 ca         1 O2H      -0.133000
     20 C27         -6.2460    42.4830    34.6090 ca         1 O2H       0.160100
     21 C30         -8.2020    34.3370    38.3400 c3         1 O2H       0.146900
     22 O1         -12.3350    33.8170    36.4420 o          1 O2H      -0.583100
     23 N1         -14.2570    33.6500    37.6670 ns         1 O2H      -0.145000
     24 C6         -16.4200    32.7120    37.2550 ca         1 O2H      -0.153000
     25 C5         -17.2950    31.9470    36.5050 ca         1 O2H      -0.060000
     26 C4         -16.8660    31.3120    35.3380 ca         1 O2H       0.129400
     27 N          -17.7750    30.5270    34.6140 ne         1 O2H      -0.651100
     28 O          -15.9990    29.6640    33.3770 os         1 O2H      -0.488600
     29 C          -20.2090    30.1030    32.3930 c3         1 O2H      -0.090100
     30 N2         -12.0460    37.1190    37.7810 nb         1 O2H      -0.633000
     31 C18         -9.9190    38.0030    37.2360 ca         1 O2H       0.083100
     32 C17         -9.2910    36.8190    37.5880 ca         1 O2H      -0.179000
     33 O2          -9.1700    39.1040    36.8520 os         1 O2H      -0.250200
     34 C25         -7.5670    41.3070    36.2550 ca         1 O2H      -0.040000
     35 C26         -6.7850    42.3740    35.9160 ca         1 O2H      -0.141000
     36 O3          -5.4910    43.5870    34.3940 os         1 O2H      -0.347100
     37 C29         -4.9100    43.7670    33.1010 c3         1 O2H       0.146900
     38 C28         -6.5020    41.5120    33.6670 ca         1 O2H      -0.198000
     39 C23         -7.3110    40.4000    33.9950 ca         1 O2H       0.327000
     40 N3          -7.5460    39.4630    33.0300 nb         1 O2H      -0.689000
     41 H1         -20.1100    27.9810    32.7410 hc         1 O2H       0.048200
     42 H2         -19.8970    28.9440    34.1900 hc         1 O2H       0.048200
     43 H3         -17.8090    27.7530    33.3250 hc         1 O2H       0.063700
     44 H4         -17.8490    28.7900    31.9210 hc         1 O2H       0.063700
     45 H5         -13.6310    32.3570    35.3690 ha         1 O2H       0.149000
     46 H6         -13.5750    29.5820    34.4510 hc         1 O2H       0.052033
     47 H7         -13.5560    29.7240    32.6800 hc         1 O2H       0.052033
     48 H8         -12.9910    31.0660    33.6780 hc         1 O2H       0.052033
     49 H9         -14.7020    32.6710    32.5950 hc         1 O2H       0.052033
     50 H10        -15.1210    31.3230    31.5170 hc         1 O2H       0.052033
     51 H11        -16.3880    32.1530    32.4480 hc         1 O2H       0.052033
     52 H12        -13.1870    35.3180    39.2080 hc         1 O2H       0.080700
     53 H13        -11.8480    34.1690    39.2370 hc         1 O2H       0.080700
     54 H14        -11.7820    39.0530    37.0650 h4         1 O2H       0.041100
     55 H15         -9.5140    37.3640    34.7840 ha         1 O2H       0.138000
     56 H16         -8.4880    37.7050    32.5700 h4         1 O2H       0.020100
     57 H17         -8.0500    33.3170    38.6800 h1         1 O2H       0.048367
     58 H18         -7.8420    34.4430    37.3140 h1         1 O2H       0.048367
     59 H19         -7.6670    35.0300    38.9920 h1         1 O2H       0.048367
     60 H20        -14.6860    33.9660    38.5250 hn         1 O2H       0.151000
     61 H21        -16.7630    33.2000    38.1590 ha         1 O2H       0.112000
     62 H22        -18.3250    31.8280    36.8180 ha         1 O2H       0.131000
     63 H23        -21.2930    30.1610    32.5090 hc         1 O2H       0.035367
     64 H24        -19.7790    31.0310    32.7740 hc         1 O2H       0.035367
     65 H25        -19.9880    30.0430    31.3240 hc         1 O2H       0.035367
     66 H26         -8.2170    36.7350    37.5060 ha         1 O2H       0.141000
     67 H27         -7.9750    41.2290    37.2520 ha         1 O2H       0.131000
     68 H28         -6.5610    43.1540    36.6330 ha         1 O2H       0.131000
     69 H29         -4.3590    44.7020    33.1510 h1         1 O2H       0.045700
     70 H30         -4.2280    42.9470    32.8640 h1         1 O2H       0.045700
     71 H31         -5.6830    43.8320    32.3330 h1         1 O2H       0.045700
     72 H32         -6.1050    41.5660    32.6640 ha         1 O2H       0.137000
@<TRIPOS>BOND
     1     1     2 1   
     2     1    29 1   
     3     1    41 1   
     4     1    42 1   
     5     2     3 1   
     6     2    43 1   
     7     2    44 1   
     8     3    27 2   
     9     3    28 1   
    10     4    14 1   
    11     4    21 1   
    12     5     6 ar  
    13     5    23 1   
    14     5    24 ar  
    15     6     7 ar  
    16     6    45 1   
    17     7     8 1   
    18     7    26 ar  
    19     8     9 1   
    20     8    10 1   
    21     8    28 1   
    22     9    46 1   
    23     9    47 1   
    24     9    48 1   
    25    10    49 1   
    26    10    50 1   
    27    10    51 1   
    28    11    12 1   
    29    11    22 2   
    30    11    23 1   
    31    12    13 1   
    32    12    52 1   
    33    12    53 1   
    34    13    14 ar  
    35    13    30 ar  
    36    14    32 ar  
    37    15    30 ar  
    38    15    31 ar  
    39    15    54 1   
    40    16    17 ar  
    41    16    19 ar  
    42    16    33 1   
    43    17    18 ar  
    44    17    55 1   
    45    18    40 ar  
    46    18    56 1   
    47    19    34 ar  
    48    19    39 ar  
    49    20    35 ar  
    50    20    36 1   
    51    20    38 ar  
    52    21    57 1   
    53    21    58 1   
    54    21    59 1   
    55    23    60 1   
    56    24    25 ar  
    57    24    61 1   
    58    25    26 ar  
    59    25    62 1   
    60    26    27 1   
    61    29    63 1   
    62    29    64 1   
    63    29    65 1   
    64    31    32 ar  
    65    31    33 1   
    66    32    66 1   
    67    34    35 ar  
    68    34    67 1   
    69    35    68 1   
    70    36    37 1   
    71    37    69 1   
    72    37    70 1   
    73    37    71 1   
    74    38    39 ar  
    75    38    72 1   
    76    39    40 ar  
@<TRIPOS>SUBSTRUCTURE
     1 O2H         1 TEMP              0 ****  ****    0 ROOT
