@<TRIPOS>MOLECULE
O2H
   72    76     1     0     0
SMALL
No Charge or Current Charge


@<TRIPOS>ATOM
      1 C1         -19.5410    30.1290    32.3420 c3         1 O2H      -0.062400
      2 C2         -18.8340    29.3960    33.5070 c3         1 O2H      -0.103700
      3 C3         -17.7160    30.1970    34.1400 c2         1 O2H       0.634600
      4 O4          -8.9770    34.6200    37.7790 os         1 O2H      -0.336100
      5 C7         -14.7590    32.8030    37.2290 ca         1 O2H      -0.031000
      6 C8         -14.5080    32.0150    36.0840 ca         1 O2H      -0.106000
      7 C9         -15.5710    31.4110    35.3750 ca         1 O2H      -0.126300
      8 C10        -15.3180    30.5840    34.0980 c6         1 O2H       0.243300
      9 C11        -14.1450    29.5770    34.2460 c3         1 O2H      -0.097600
     10 C12        -15.0470    31.5190    32.8910 c3         1 O2H      -0.097600
     11 C13        -12.3500    33.3870    37.9210 c          1 O2H       0.613100
     12 C14        -11.6410    34.2720    38.9360 c3         1 O2H      -0.195700
     13 C15        -11.1840    35.5350    38.2350 ca         1 O2H       0.332300
     14 C16         -9.8790    35.6680    37.6770 ca         1 O2H       0.127100
     15 C19        -11.7800    37.6740    37.5580 ca         1 O2H       0.308900
     16 C20         -9.4630    39.2200    35.2360 ca         1 O2H       0.193100
     17 C21         -9.5860    38.3040    34.1840 ca         1 O2H      -0.266000
     18 C22         -8.7820    38.4630    33.0520 ca         1 O2H       0.389900
     19 C24         -8.5460    40.2800    35.1080 ca         1 O2H      -0.133000
     20 C27         -6.6900    42.3760    34.8110 ca         1 O2H       0.160100
     21 C30         -7.6540    34.6830    37.2170 c3         1 O2H       0.146900
     22 O1         -11.7210    32.7030    37.1240 o          1 O2H      -0.583100
     23 N1         -13.7370    33.4380    37.9880 ns         1 O2H      -0.145000
     24 C6         -16.0890    32.9970    37.6450 ca         1 O2H      -0.153000
     25 C5         -17.1500    32.4110    36.9350 ca         1 O2H      -0.060000
     26 C4         -16.8940    31.6230    35.8030 ca         1 O2H       0.129400
     27 N          -17.9550    31.0330    35.1030 ne         1 O2H      -0.651100
     28 O          -16.4700    29.7900    33.7490 os         1 O2H      -0.488600
     29 C          -18.6210    30.4140    31.1360 c3         1 O2H      -0.090100
     30 N2         -12.1170    36.5170    38.1790 nb         1 O2H      -0.633000
     31 C18        -10.5180    37.8950    36.9650 ca         1 O2H       0.083100
     32 C17         -9.5430    36.8800    37.0330 ca         1 O2H      -0.179000
     33 O2         -10.2490    39.1050    36.3620 os         1 O2H      -0.250200
     34 C25         -8.3890    41.2380    36.1310 ca         1 O2H      -0.040000
     35 C26         -7.4630    42.2810    35.9760 ca         1 O2H      -0.141000
     36 O3          -5.7960    43.4230    34.7160 os         1 O2H      -0.347100
     37 C29         -4.9540    43.6150    33.5640 c3         1 O2H       0.146900
     38 C28         -6.8480    41.4170    33.7900 ca         1 O2H      -0.198000
     39 C23         -7.7710    40.3670    33.9260 ca         1 O2H       0.327000
     40 N3          -7.8920    39.4700    32.9230 nb         1 O2H      -0.689000
     41 H1         -20.3870    29.5200    32.0020 hc         1 O2H       0.048200
     42 H2         -19.9600    31.0750    32.7070 hc         1 O2H       0.048200
     43 H3         -19.5810    29.1490    34.2710 hc         1 O2H       0.063700
     44 H4         -18.4470    28.4360    33.1450 hc         1 O2H       0.063700
     45 H5         -13.4940    31.8770    35.7240 ha         1 O2H       0.149000
     46 H6         -14.2770    28.9510    35.1360 hc         1 O2H       0.052033
     47 H7         -14.0840    28.9100    33.3770 hc         1 O2H       0.052033
     48 H8         -13.1780    30.0830    34.3330 hc         1 O2H       0.052033
     49 H9         -14.1300    32.1020    33.0400 hc         1 O2H       0.052033
     50 H10        -14.9320    30.9500    31.9610 hc         1 O2H       0.052033
     51 H11        -15.8690    32.2300    32.7500 hc         1 O2H       0.052033
     52 H12        -12.3260    34.5370    39.7500 hc         1 O2H       0.080700
     53 H13        -10.7820    33.7310    39.3470 hc         1 O2H       0.080700
     54 H14        -12.5460    38.4490    37.5290 h4         1 O2H       0.041100
     55 H15        -10.2940    37.4830    34.2320 ha         1 O2H       0.138000
     56 H16         -8.8530    37.7660    32.2170 h4         1 O2H       0.020100
     57 H17         -7.1160    33.7450    37.4070 h1         1 O2H       0.048367
     58 H18         -7.6980    34.8350    36.1310 h1         1 O2H       0.048367
     59 H19         -7.0770    35.5010    37.6660 h1         1 O2H       0.048367
     60 H20        -14.0900    34.0520    38.7110 hn         1 O2H       0.151000
     61 H21        -16.3050    33.6050    38.5200 ha         1 O2H       0.112000
     62 H22        -18.1750    32.5680    37.2640 ha         1 O2H       0.131000
     63 H23        -19.1900    30.8860    30.3260 hc         1 O2H       0.035367
     64 H24        -17.8050    31.0900    31.4160 hc         1 O2H       0.035367
     65 H25        -18.1850    29.4840    30.7520 hc         1 O2H       0.035367
     66 H26         -8.5610    37.0460    36.6010 ha         1 O2H       0.141000
     67 H27         -8.9780    41.1820    37.0440 ha         1 O2H       0.131000
     68 H28         -7.3420    43.0190    36.7650 ha         1 O2H       0.131000
     69 H29         -4.3230    44.5020    33.6980 h1         1 O2H       0.045700
     70 H30         -4.2950    42.7500    33.4140 h1         1 O2H       0.045700
     71 H31         -5.5580    43.7610    32.6600 h1         1 O2H       0.045700
     72 H32         -6.2630    41.4690    32.8790 ha         1 O2H       0.137000
@<TRIPOS>BOND
     1     1     2 1   
     2     1    29 1   
     3     1    41 1   
     4     1    42 1   
     5     2     3 1   
     6     2    43 1   
     7     2    44 1   
     8     3    27 2   
     9     3    28 1   
    10     4    14 1   
    11     4    21 1   
    12     5     6 ar  
    13     5    23 1   
    14     5    24 ar  
    15     6     7 ar  
    16     6    45 1   
    17     7     8 1   
    18     7    26 ar  
    19     8     9 1   
    20     8    10 1   
    21     8    28 1   
    22     9    46 1   
    23     9    47 1   
    24     9    48 1   
    25    10    49 1   
    26    10    50 1   
    27    10    51 1   
    28    11    12 1   
    29    11    22 2   
    30    11    23 1   
    31    12    13 1   
    32    12    52 1   
    33    12    53 1   
    34    13    14 ar  
    35    13    30 ar  
    36    14    32 ar  
    37    15    30 ar  
    38    15    31 ar  
    39    15    54 1   
    40    16    17 ar  
    41    16    19 ar  
    42    16    33 1   
    43    17    18 ar  
    44    17    55 1   
    45    18    40 ar  
    46    18    56 1   
    47    19    34 ar  
    48    19    39 ar  
    49    20    35 ar  
    50    20    36 1   
    51    20    38 ar  
    52    21    57 1   
    53    21    58 1   
    54    21    59 1   
    55    23    60 1   
    56    24    25 ar  
    57    24    61 1   
    58    25    26 ar  
    59    25    62 1   
    60    26    27 1   
    61    29    63 1   
    62    29    64 1   
    63    29    65 1   
    64    31    32 ar  
    65    31    33 1   
    66    32    66 1   
    67    34    35 ar  
    68    34    67 1   
    69    35    68 1   
    70    36    37 1   
    71    37    69 1   
    72    37    70 1   
    73    37    71 1   
    74    38    39 ar  
    75    38    72 1   
    76    39    40 ar  
@<TRIPOS>SUBSTRUCTURE
     1 O2H         1 TEMP              0 ****  ****    0 ROOT
