@<TRIPOS>MOLECULE
O2I
   40    42     1     0     0
SMALL
abcg2


@<TRIPOS>ATOM
      1 C10        -21.2490     4.7730   -31.9630 ca         1 O2I      -0.065800
      2 C13        -23.4540     5.4800   -32.6150 ca         1 O2I       0.114000
      3 C15        -24.0100     4.2510   -32.2710 ca         1 O2I       0.088100
      4 C20        -16.5040    -2.3990   -28.0130 ca         1 O2I      -0.075000
      5 C21        -17.9640    -0.7380   -28.9850 ca         1 O2I      -0.050800
      6 C22        -17.6140    -3.1870   -27.7000 ca         1 O2I      -0.004000
      7 C24        -18.8970    -2.7630   -28.0410 ca         1 O2I      -0.075000
      8 C02        -17.6990     2.7660   -30.4690 cc         1 O2I       0.513200
      9 C03        -18.8430     4.3550   -31.3370 cd         1 O2I      -0.011600
     10 C04        -17.4420     4.8390   -31.2560 c          1 O2I       0.538200
     11 C09        -19.8490     5.1090   -31.8290 ce         1 O2I      -0.036200
     12 C11        -22.1150     5.7500   -32.4720 ca         1 O2I      -0.094000
     13 C12        -21.7820     3.5260   -31.6130 ca         1 O2I      -0.094000
     14 C14        -23.1250     3.2960   -31.7750 ca         1 O2I       0.114000
     15 C19        -16.6810    -1.1890   -28.6500 ca         1 O2I      -0.094000
     16 C23        -19.0610    -1.5490   -28.6810 ca         1 O2I      -0.094000
     17 C25        -17.4300    -4.4280   -27.0210 cg         1 O2I       0.318000
     18 C27        -18.2190     0.5470   -29.6200 cf         1 O2I      -0.093200
     19 F16        -23.6350     2.0980   -31.4450 f          1 O2I      -0.170500
     20 F17        -24.2790     6.4160   -33.0990 f          1 O2I      -0.170500
     21 N05        -18.9040     3.0730   -30.8340 nd         1 O2I      -0.613300
     22 N06        -16.7790     3.7700   -30.6920 n          1 O2I      -0.358300
     23 N26        -17.2780    -5.4260   -26.4650 n1         1 O2I      -0.442000
     24 O08        -16.9560     5.8990   -31.5860 o          1 O2I      -0.502000
     25 O18        -25.3220     4.0640   -32.4350 oh         1 O2I      -0.503100
     26 H2         -19.7560    -3.3770   -27.8050 ha         1 O2I       0.130000
     27 H8         -19.5710     6.1020   -32.1660 ha         1 O2I       0.197000
     28 H10        -21.7390     6.7260   -32.7560 ha         1 O2I       0.153000
     29 H11        -21.1510     2.7430   -31.2180 ha         1 O2I       0.153000
     30 H12        -15.8070    -0.5960   -28.8850 ha         1 O2I       0.122000
     31 H13        -20.0580    -1.2180   -28.9410 ha         1 O2I       0.122000
     32 H14        -19.2530     0.7360   -29.8910 ha         1 O2I       0.201000
     33 H15        -25.5900     3.1800   -32.1550 ho         1 O2I       0.483000
     34 C07        -15.3660     3.7360   -30.3930 c3         1 O2I       0.099300
     35 C01        -17.3150     1.5070   -29.8670 ce         1 O2I      -0.274600
     36 H1         -15.5090    -2.7350   -27.7540 ha         1 O2I       0.130000
     37 H3         -16.2720     1.3780   -29.6070 ha         1 O2I       0.187000
     38 H5         -14.8680     2.9440   -30.9500 h1         1 O2I       0.052367
     39 H6         -14.9320     4.6890   -30.6830 h1         1 O2I       0.052367
     40 H7         -15.1960     3.5880   -29.3280 h1         1 O2I       0.052367
@<TRIPOS>BOND
     1     1    11 1   
     2     1    12 ar  
     3     1    13 ar  
     4     2     3 ar  
     5     2    12 ar  
     6     2    20 1   
     7     3    14 ar  
     8     3    25 1   
     9     4     6 ar  
    10     4    15 ar  
    11     4    36 1   
    12     5    15 ar  
    13     5    16 ar  
    14     5    18 1   
    15     6     7 ar  
    16     6    17 1   
    17     7    16 ar  
    18     7    26 1   
    19     8    21 2   
    20     8    22 1   
    21     8    35 1   
    22     9    10 1   
    23     9    11 2   
    24     9    21 1   
    25    10    22 1   
    26    10    24 2   
    27    11    27 1   
    28    12    28 1   
    29    13    14 ar  
    30    13    29 1   
    31    14    19 1   
    32    15    30 1   
    33    16    31 1   
    34    17    23 3   
    35    18    32 1   
    36    18    35 2   
    37    22    34 1   
    38    25    33 1   
    39    34    38 1   
    40    34    39 1   
    41    34    40 1   
    42    35    37 1   
@<TRIPOS>SUBSTRUCTURE
     1 O2I         1 TEMP              0 ****  ****    0 ROOT
