@<TRIPOS>MOLECULE
O2I
   40    42     1     0     0
SMALL
No Charge or Current Charge


@<TRIPOS>ATOM
      1 C10        -21.2780     4.8180   -32.0960 ca         1 O2I      -0.065800
      2 C13        -23.5940     5.6040   -32.0470 ca         1 O2I       0.114000
      3 C15        -24.0600     4.3110   -32.3660 ca         1 O2I       0.088100
      4 C20        -16.4650    -2.4980   -28.0600 ca         1 O2I      -0.075000
      5 C21        -17.9810    -0.7170   -28.7810 ca         1 O2I      -0.050800
      6 C22        -17.5370    -3.1850   -27.4620 ca         1 O2I      -0.004000
      7 C24        -18.8310    -2.6380   -27.5240 ca         1 O2I      -0.075000
      8 C02        -17.7140     2.6800   -30.7290 cc         1 O2I       0.513200
      9 C03        -18.7790     4.3400   -31.4940 cd         1 O2I      -0.011600
     10 C04        -17.4000     4.8290   -31.3010 c          1 O2I       0.538200
     11 C09        -19.8200     5.1200   -31.9600 ce         1 O2I      -0.036200
     12 C11        -22.2170     5.8540   -31.9170 ca         1 O2I      -0.094000
     13 C12        -21.7440     3.5270   -32.4270 ca         1 O2I      -0.094000
     14 C14        -23.1200     3.2780   -32.5570 ca         1 O2I       0.114000
     15 C19        -16.6850    -1.2730   -28.7150 ca         1 O2I      -0.094000
     16 C23        -19.0500    -1.4130   -28.1790 ca         1 O2I      -0.094000
     17 C25        -17.3110    -4.4380   -26.7930 cg         1 O2I       0.318000
     18 C27        -18.2450     0.5680   -29.4610 cf         1 O2I      -0.093200
     19 F16        -23.5400     2.0310   -32.8750 f          1 O2I      -0.170500
     20 F17        -24.4690     6.6200   -31.8620 f          1 O2I      -0.170500
     21 N05        -18.9500     3.0140   -31.1000 nd         1 O2I      -0.613300
     22 N06        -16.7930     3.7070   -30.7960 n          1 O2I      -0.358300
     23 N26        -17.1220    -5.4580   -26.2560 n1         1 O2I      -0.442000
     24 O08        -16.9080     5.9300   -31.5150 o          1 O2I      -0.502000
     25 O18        -25.4060     4.0630   -32.4950 oh         1 O2I      -0.503100
     26 H2         -19.6700    -3.1590   -27.0660 ha         1 O2I       0.130000
     27 H8         -19.5490     6.1540   -32.1770 ha         1 O2I       0.197000
     28 H10        -21.8820     6.8590   -31.6690 ha         1 O2I       0.153000
     29 H11        -21.0450     2.7140   -32.5980 ha         1 O2I       0.153000
     30 H12        -15.8380    -0.7660   -29.1680 ha         1 O2I       0.122000
     31 H13        -20.0580    -1.0050   -28.2160 ha         1 O2I       0.122000
     32 H14        -19.2960     0.8710   -29.4390 ha         1 O2I       0.201000
     33 H15        -25.5280     3.1150   -32.7210 ho         1 O2I       0.483000
     34 C07        -15.3770     3.6640   -30.3800 c3         1 O2I       0.099300
     35 C01        -17.3780     1.4090   -30.0980 ce         1 O2I      -0.274600
     36 H1         -15.4580    -2.9110   -28.0200 ha         1 O2I       0.130000
     37 H3         -16.3220     1.1600   -30.1280 ha         1 O2I       0.187000
     38 H5         -14.8240     2.9710   -31.0260 h1         1 O2I       0.052367
     39 H6         -14.9220     4.6600   -30.4550 h1         1 O2I       0.052367
     40 H7         -15.3070     3.3230   -29.3390 h1         1 O2I       0.052367
@<TRIPOS>BOND
     1     1    11 1   
     2     1    12 ar  
     3     1    13 ar  
     4     2     3 ar  
     5     2    12 ar  
     6     2    20 1   
     7     3    14 ar  
     8     3    25 1   
     9     4     6 ar  
    10     4    15 ar  
    11     4    36 1   
    12     5    15 ar  
    13     5    16 ar  
    14     5    18 1   
    15     6     7 ar  
    16     6    17 1   
    17     7    16 ar  
    18     7    26 1   
    19     8    21 2   
    20     8    22 1   
    21     8    35 1   
    22     9    10 1   
    23     9    11 2   
    24     9    21 1   
    25    10    22 1   
    26    10    24 2   
    27    11    27 1   
    28    12    28 1   
    29    13    14 ar  
    30    13    29 1   
    31    14    19 1   
    32    15    30 1   
    33    16    31 1   
    34    17    23 3   
    35    18    32 1   
    36    18    35 2   
    37    22    34 1   
    38    25    33 1   
    39    34    38 1   
    40    34    39 1   
    41    34    40 1   
    42    35    37 1   
@<TRIPOS>SUBSTRUCTURE
     1 O2I         1 TEMP              0 ****  ****    0 ROOT
