@<TRIPOS>MOLECULE
O2J
   31    32     1     0     0
SMALL
No Charge or Current Charge


@<TRIPOS>ATOM
      1 N1          -0.6480     0.4060     0.2160 nh         1 O2J      -0.771300
      2 C4           0.4780    -0.5950     0.2450 c6         1 O2J       0.181800
      3 C5          -0.2880     1.7410     0.7980 c6         1 O2J       0.175800
      4 C6           1.1150     2.2430     0.3460 c6         1 O2J       0.147600
      5 C7          -1.9930    -0.0190     0.1580 ca         1 O2J       0.615900
      6 C8          -3.0350     0.6410     0.8400 ca         1 O2J      -0.227000
      7 C10         -4.5640    -0.9660    -0.0760 ca         1 O2J      -0.219000
      8 C1           5.3600    -1.3420    -0.4670 c3         1 O2J       0.145900
      9 O1           4.2090    -0.4950    -0.6200 os         1 O2J      -0.440000
     10 C2           3.0180    -0.9830     0.0300 c3         1 O2J       0.163600
     11 C3           1.8440     0.0160    -0.1950 c6         1 O2J       0.153300
     12 O2           2.1180     1.2250     0.5550 os         1 O2J      -0.435000
     13 C9          -4.3480     0.1630     0.7250 ca         1 O2J      -0.038000
     14 C11         -3.4710    -1.5640    -0.7210 ca         1 O2J       0.385900
     15 N2          -2.2070    -1.1030    -0.6090 nb         1 O2J      -0.750000
     16 H1           0.5830    -1.0010     1.2620 h1         1 O2J       0.063200
     17 H2           0.2730    -1.4480    -0.4190 h1         1 O2J       0.063200
     18 H3          -1.0240     2.5000     0.4950 h1         1 O2J       0.048700
     19 H4          -0.3070     1.6860     1.8970 h1         1 O2J       0.048700
     20 H5           1.0890     2.5090    -0.7210 h1         1 O2J       0.054700
     21 H6           1.3890     3.1430     0.9130 h1         1 O2J       0.054700
     22 H7          -2.8380     1.5070     1.4620 ha         1 O2J       0.120000
     23 H8          -5.5610    -1.3780    -0.2000 ha         1 O2J       0.125000
     24 H9           6.2240    -0.9080    -0.9850 h1         1 O2J       0.028700
     25 H10          5.6200    -1.4590     0.5930 h1         1 O2J       0.028700
     26 H11          5.1710    -2.3370    -0.8910 h1         1 O2J       0.028700
     27 H12          2.7330    -1.9580    -0.3880 h1         1 O2J       0.030700
     28 H13          3.1810    -1.1080     1.1090 h1         1 O2J       0.030700
     29 H14          1.7970     0.2600    -1.2660 h1         1 O2J       0.059700
     30 H15         -5.1720     0.6510     1.2420 ha         1 O2J       0.114000
     31 H16         -3.6130    -2.4440    -1.3490 h4         1 O2J       0.014100
@<TRIPOS>BOND
     1     1     2 1   
     2     1     3 1   
     3     1     5 1   
     4     2    11 1   
     5     2    16 1   
     6     2    17 1   
     7     3     4 1   
     8     3    18 1   
     9     3    19 1   
    10     4    12 1   
    11     4    20 1   
    12     4    21 1   
    13     5     6 ar  
    14     5    15 ar  
    15     6    13 ar  
    16     6    22 1   
    17     7    13 ar  
    18     7    14 ar  
    19     7    23 1   
    20     8     9 1   
    21     8    24 1   
    22     8    25 1   
    23     8    26 1   
    24     9    10 1   
    25    10    11 1   
    26    10    27 1   
    27    10    28 1   
    28    11    12 1   
    29    11    29 1   
    30    13    30 1   
    31    14    15 ar  
    32    14    31 1   
@<TRIPOS>SUBSTRUCTURE
     1 O2J         1 TEMP              0 ****  ****    0 ROOT
