@<TRIPOS>MOLECULE
O2J
   31    32     1     0     0
SMALL
abcg2


@<TRIPOS>ATOM
      1 N1          -0.5760     0.4060     0.2840 nh         1 O2J      -0.771300
      2 C4           0.4930    -0.5770     0.2870 c6         1 O2J       0.181800
      3 C5          -0.2400     1.6310     0.9830 c6         1 O2J       0.175800
      4 C6           1.0930     2.1590     0.4880 c6         1 O2J       0.147600
      5 C7          -1.8780    -0.0250     0.1940 ca         1 O2J       0.615900
      6 C8          -2.9710     0.7860     0.5610 ca         1 O2J      -0.227000
      7 C10         -4.4420    -0.9820    -0.1280 ca         1 O2J      -0.219000
      8 C1           5.1810    -1.2930    -0.5540 c3         1 O2J       0.145900
      9 O1           4.0920    -0.4080    -0.6230 os         1 O2J      -0.440000
     10 C2           2.9330    -0.9430    -0.0430 c3         1 O2J       0.163600
     11 C3           1.7990     0.0500    -0.1750 c6         1 O2J       0.153300
     12 O2           2.1120     1.1940     0.5890 os         1 O2J      -0.435000
     13 C9          -4.2480     0.2950     0.3890 ca         1 O2J      -0.038000
     14 C11         -3.3080    -1.7060    -0.4410 ca         1 O2J       0.385900
     15 N2          -2.0710    -1.2540    -0.2850 nb         1 O2J      -0.750000
     16 H1           0.6190    -1.0030     1.2940 h1         1 O2J       0.063200
     17 H2           0.2290    -1.3920    -0.3810 h1         1 O2J       0.063200
     18 H3          -0.9830     2.4020     0.7870 h1         1 O2J       0.048700
     19 H4          -0.2060     1.4710     2.0690 h1         1 O2J       0.048700
     20 H5           0.9840     2.4960    -0.5520 h1         1 O2J       0.054700
     21 H6           1.3910     3.0180     1.0890 h1         1 O2J       0.054700
     22 H7          -2.8390     1.7740     0.9770 ha         1 O2J       0.120000
     23 H8          -5.4290    -1.3980    -0.2740 ha         1 O2J       0.125000
     24 H9           6.0310    -0.8210    -1.0460 h1         1 O2J       0.028700
     25 H10          5.4630    -1.5200     0.4810 h1         1 O2J       0.028700
     26 H11          4.9720    -2.2430    -1.0600 h1         1 O2J       0.028700
     27 H12          2.6390    -1.8780    -0.5410 h1         1 O2J       0.030700
     28 H13          3.0950    -1.1840     1.0180 h1         1 O2J       0.030700
     29 H14          1.6880     0.3310    -1.2350 h1         1 O2J       0.059700
     30 H15         -5.0950     0.9100     0.6660 ha         1 O2J       0.114000
     31 H16         -3.3960    -2.7120    -0.8390 h4         1 O2J       0.014100
@<TRIPOS>BOND
     1     1     2 1   
     2     1     3 1   
     3     1     5 1   
     4     2    11 1   
     5     2    16 1   
     6     2    17 1   
     7     3     4 1   
     8     3    18 1   
     9     3    19 1   
    10     4    12 1   
    11     4    20 1   
    12     4    21 1   
    13     5     6 ar  
    14     5    15 ar  
    15     6    13 ar  
    16     6    22 1   
    17     7    13 ar  
    18     7    14 ar  
    19     7    23 1   
    20     8     9 1   
    21     8    24 1   
    22     8    25 1   
    23     8    26 1   
    24     9    10 1   
    25    10    11 1   
    26    10    27 1   
    27    10    28 1   
    28    11    12 1   
    29    11    29 1   
    30    13    30 1   
    31    14    15 ar  
    32    14    31 1   
@<TRIPOS>SUBSTRUCTURE
     1 O2J         1 TEMP              0 ****  ****    0 ROOT
