@<TRIPOS>MOLECULE
O2K
   68    71     1     0     0
SMALL
bcc


@<TRIPOS>ATOM
      1 C1          -4.9150    42.3040    34.6680 ca         1 O2K       0.163100
      2 C2          -5.8470    42.3650    35.7340 ca         1 O2K      -0.161000
      3 C3          -6.9400    41.5510    35.7440 ca         1 O2K      -0.057000
      4 C7         -11.4670    39.4040    35.5040 ca         1 O2K       0.372200
      5 C8         -12.3460    37.3730    36.1090 ca         1 O2K       0.404600
      6 C9         -13.5560    36.5220    36.3330 c3         1 O2K      -0.204700
      7 C10        -13.6080    35.3360    35.3870 c          1 O2K       0.686100
      8 C11        -14.6790    33.0870    35.2550 ca         1 O2K       0.079600
      9 C12        -14.1910    32.6640    34.0190 ca         1 O2K      -0.150000
     10 C13        -14.5960    31.4420    33.4910 ca         1 O2K      -0.047300
     11 C14        -14.1010    31.0080    32.1410 c3         1 O2K      -0.048800
     12 C15        -15.4850    30.6450    34.2040 ca         1 O2K      -0.155000
     13 C16        -15.9730    31.0530    35.4400 ca         1 O2K      -0.075300
     14 C19        -18.9630    31.7250    39.0020 c3         1 O2K      -0.166400
     15 C20        -19.9130    32.5050    38.1060 c3         1 O2K      -0.095100
     16 C21        -15.5680    32.2730    35.9580 ca         1 O2K      -0.177000
     17 C22        -11.0670    36.8560    36.3880 ca         1 O2K       0.055800
     18 C24         -9.9640    37.6770    36.2220 ca         1 O2K      -0.203000
     19 C27         -6.2350    40.5680    33.6270 ca         1 O2K       0.460600
     20 O3         -16.9700    30.4170    39.0210 o          1 O2K      -0.610100
     21 C18        -17.8440    30.9420    38.3430 c          1 O2K       0.667100
     22 N2         -17.8810    30.8510    37.0020 ns         1 O2K      -0.572900
     23 C17        -16.9040    30.1460    36.2100 c3         1 O2K       0.142300
     24 N1         -14.3280    34.2930    35.8700 ns         1 O2K      -0.472100
     25 O2         -13.0790    35.3640    34.2920 o          1 O2K      -0.574100
     26 N          -12.5170    38.6070    35.6810 nb         1 O2K      -0.629000
     27 C23         -9.7630    34.9950    37.0600 c3         1 O2K       0.122700
     28 C6         -10.1870    38.9720    35.7750 ca         1 O2K       0.020800
     29 C5          -8.2760    39.7580    34.6410 ca         1 O2K       0.197100
     30 C25         -8.4140    38.8990    33.5800 ca         1 O2K      -0.354300
     31 C26         -7.4240    38.9290    32.5830 ca         1 O2K       0.457200
     32 N3          -6.3790    39.7140    32.5840 nb         1 O2K      -0.692000
     33 C4          -7.1640    40.6310    34.6930 ca         1 O2K      -0.200300
     34 C28         -5.1070    41.4190    33.6340 ca         1 O2K      -0.287300
     35 O           -3.8820    43.1530    34.7670 os         1 O2K      -0.314900
     36 C           -2.9020    43.1430    33.7450 c3         1 O2K       0.122700
     37 H1          -5.6790    43.0680    36.5390 ha         1 O2K       0.148000
     38 H2          -7.6370    41.6160    36.5680 ha         1 O2K       0.148000
     39 H3         -11.6540    40.4130    35.1550 h4         1 O2K       0.040100
     40 H4         -14.4440    37.1320    36.1510 hc         1 O2K       0.080700
     41 H5         -13.6110    36.1920    37.3740 hc         1 O2K       0.080700
     42 H6         -13.4990    33.2760    33.4620 ha         1 O2K       0.165000
     43 H7         -14.8000    31.3110    31.3570 hc         1 O2K       0.044367
     44 H8         -13.1360    31.4560    31.9050 hc         1 O2K       0.044367
     45 H9         -13.9980    29.9250    32.0800 hc         1 O2K       0.044367
     46 H10        -15.8020    29.6940    33.7890 ha         1 O2K       0.129000
     47 H11        -19.5270    31.0090    39.6070 hc         1 O2K       0.072200
     48 H12        -18.4850    32.3990    39.7160 hc         1 O2K       0.072200
     49 H13        -20.6280    33.0560    38.7160 hc         1 O2K       0.039033
     50 H14        -19.3880    33.2350    37.4880 hc         1 O2K       0.039033
     51 H15        -20.4910    31.8530    37.4500 hc         1 O2K       0.039033
     52 H16        -15.9440    32.6040    36.9190 ha         1 O2K       0.132000
     53 H17         -8.9570    37.3460    36.4410 ha         1 O2K       0.159000
     54 H18        -18.6200    31.3150    36.5000 hn         1 O2K       0.316500
     55 H19        -17.4230    29.4860    35.5120 h1         1 O2K       0.066700
     56 H20        -16.3260    29.5050    36.8750 h1         1 O2K       0.066700
     57 H21        -14.7140    34.4210    36.7930 hn         1 O2K       0.315500
     58 H22         -9.9590    33.9660    37.3470 h1         1 O2K       0.048367
     59 H23         -9.1330    35.0010    36.1670 h1         1 O2K       0.048367
     60 H24         -9.2350    35.4950    37.8750 h1         1 O2K       0.048367
     61 H25         -9.2440    38.2130    33.4860 ha         1 O2K       0.158000
     62 H26         -7.5250    38.2550    31.7390 h4         1 O2K       0.019100
     63 H27         -4.4220    41.3400    32.8020 ha         1 O2K       0.155000
     64 H28         -2.1650    43.8940    34.0170 h1         1 O2K       0.044700
     65 H29         -2.4070    42.1720    33.6700 h1         1 O2K       0.044700
     66 H30         -3.3290    43.3990    32.7720 h1         1 O2K       0.044700
     67 O1          -9.1440    39.8550    35.6670 os         1 O2K      -0.245200
     68 O4         -11.0260    35.5890    36.8120 os         1 O2K      -0.308900
@<TRIPOS>BOND
     1     1     2 ar  
     2     1    34 ar  
     3     1    35 1   
     4     2     3 ar  
     5     2    37 1   
     6     3    33 ar  
     7     3    38 1   
     8     4    26 ar  
     9     4    28 ar  
    10     4    39 1   
    11     5     6 1   
    12     5    17 ar  
    13     5    26 ar  
    14     6     7 1   
    15     6    40 1   
    16     6    41 1   
    17     7    24 1   
    18     7    25 2   
    19     8     9 ar  
    20     8    16 ar  
    21     8    24 1   
    22     9    10 ar  
    23     9    42 1   
    24    10    11 1   
    25    10    12 ar  
    26    11    43 1   
    27    11    44 1   
    28    11    45 1   
    29    12    13 ar  
    30    12    46 1   
    31    13    16 ar  
    32    13    23 1   
    33    14    15 1   
    34    14    21 1   
    35    14    47 1   
    36    14    48 1   
    37    15    49 1   
    38    15    50 1   
    39    15    51 1   
    40    16    52 1   
    41    17    18 ar  
    42    17    68 1   
    43    18    28 ar  
    44    18    53 1   
    45    19    32 ar  
    46    19    33 ar  
    47    19    34 ar  
    48    20    21 2   
    49    21    22 1   
    50    22    23 1   
    51    22    54 1   
    52    23    55 1   
    53    23    56 1   
    54    24    57 1   
    55    27    58 1   
    56    27    59 1   
    57    27    60 1   
    58    27    68 1   
    59    28    67 1   
    60    29    30 ar  
    61    29    33 ar  
    62    29    67 1   
    63    30    31 ar  
    64    30    61 1   
    65    31    32 ar  
    66    31    62 1   
    67    34    63 1   
    68    35    36 1   
    69    36    64 1   
    70    36    65 1   
    71    36    66 1   
@<TRIPOS>SUBSTRUCTURE
     1 O2K         1 TEMP              0 ****  ****    0 ROOT
