@<TRIPOS>MOLECULE
O2K
   68    71     1     0     0
SMALL
No Charge or Current Charge


@<TRIPOS>ATOM
      1 C1          -4.8650    40.7470    35.5970 ca         1 O2K       0.163100
      2 C2          -6.0060    41.4530    35.9990 ca         1 O2K      -0.143000
      3 C3          -7.2740    41.0840    35.5240 ca         1 O2K      -0.039000
      4 C7         -12.2130    40.2640    34.4540 ca         1 O2K       0.306900
      5 C8         -13.4470    38.5080    35.3410 ca         1 O2K       0.339300
      6 C9         -14.8280    37.9400    35.6050 c3         1 O2K      -0.204700
      7 C10        -15.0710    36.7580    34.6750 c          1 O2K       0.619100
      8 C11        -15.0820    34.1900    34.7840 ca         1 O2K      -0.013000
      9 C12        -15.6130    33.8840    33.5120 ca         1 O2K      -0.132000
     10 C13        -15.7300    32.5470    33.0890 ca         1 O2K      -0.047300
     11 C14        -16.3090    32.2270    31.7190 c3         1 O2K      -0.048800
     12 C15        -15.3200    31.5080    33.9440 ca         1 O2K      -0.137000
     13 C16        -14.7910    31.7970    35.2140 ca         1 O2K      -0.075300
     14 C19        -16.6840    30.3310    39.1980 c3         1 O2K      -0.166400
     15 C20        -17.6930    31.4830    39.4030 c3         1 O2K      -0.095100
     16 C21        -14.6790    33.1380    35.6260 ca         1 O2K      -0.159000
     17 C22        -12.2670    37.8200    35.7440 ca         1 O2K       0.121100
     18 C24        -11.0120    38.4080    35.4660 ca         1 O2K      -0.185000
     19 C27         -6.2550    39.2770    34.2210 ca         1 O2K       0.330000
     20 O3         -14.5760    31.4770    38.8930 o          1 O2K      -0.610100
     21 C18        -15.4580    30.7880    38.4010 c          1 O2K       0.600100
     22 N2         -15.4070    30.3370    37.1030 ns         1 O2K      -0.505900
     23 C17        -14.3540    30.6720    36.1420 c3         1 O2K       0.142300
     24 N1         -14.9380    35.5140    35.2780 ns         1 O2K      -0.146000
     25 O2         -15.3510    36.9260    33.4940 o          1 O2K      -0.574100
     26 N          -13.4240    39.7110    34.7150 nb         1 O2K      -0.629000
     27 C23        -11.2290    35.8330    36.7950 c3         1 O2K       0.145900
     28 C6         -10.9910    39.6480    34.7970 ca         1 O2K       0.086100
     29 C5          -8.6590    39.6000    34.1440 ca         1 O2K       0.197100
     30 C25         -8.7270    38.5210    33.2530 ca         1 O2K      -0.271000
     31 C26         -7.5460    37.8650    32.8970 ca         1 O2K       0.391900
     32 N3          -6.3350    38.2310    33.3700 nb         1 O2K      -0.692000
     33 C4          -7.4010    39.9970    34.6340 ca         1 O2K      -0.135000
     34 C28         -4.9950    39.6610    34.7080 ca         1 O2K      -0.204000
     35 O           -3.6460    41.1560    36.0980 os         1 O2K      -0.338100
     36 C           -2.4120    40.5020    35.7500 c3         1 O2K       0.145900
     37 H1          -5.9080    42.2910    36.6850 ha         1 O2K       0.130000
     38 H2          -8.1470    41.6450    35.8500 ha         1 O2K       0.130000
     39 H3         -12.2210    41.2300    33.9500 h4         1 O2K       0.040100
     40 H4         -15.5950    38.6990    35.4150 hc         1 O2K       0.080700
     41 H5         -14.8860    37.6180    36.6510 hc         1 O2K       0.080700
     42 H6         -15.9500    34.6690    32.8430 ha         1 O2K       0.147000
     43 H7         -17.4030    32.1690    31.7620 hc         1 O2K       0.044367
     44 H8         -16.0420    32.9950    30.9840 hc         1 O2K       0.044367
     45 H9         -15.9370    31.2670    31.3400 hc         1 O2K       0.044367
     46 H10        -15.4150    30.4730    33.6210 ha         1 O2K       0.111000
     47 H11        -17.1950    29.5170    38.6700 hc         1 O2K       0.072200
     48 H12        -16.3530    29.9830    40.1830 hc         1 O2K       0.072200
     49 H13        -18.5620    31.1340    39.9740 hc         1 O2K       0.039033
     50 H14        -17.2310    32.3110    39.9540 hc         1 O2K       0.039033
     51 H15        -18.0470    31.8640    38.4370 hc         1 O2K       0.039033
     52 H16        -14.2740    33.3610    36.6110 ha         1 O2K       0.114000
     53 H17        -10.0810    37.9350    35.7600 ha         1 O2K       0.141000
     54 H18        -16.1850    29.7720    36.7850 hn         1 O2K       0.316500
     55 H19        -14.1190    29.7760    35.5520 h1         1 O2K       0.066700
     56 H20        -13.4390    30.9640    36.6730 h1         1 O2K       0.066700
     57 H21        -14.6690    35.5570    36.2520 hn         1 O2K       0.149000
     58 H22        -11.5470    34.9020    37.2810 h1         1 O2K       0.048367
     59 H23        -10.6170    35.5680    35.9230 h1         1 O2K       0.048367
     60 H24        -10.6080    36.3930    37.5060 h1         1 O2K       0.048367
     61 H25         -9.6730    38.1930    32.8360 ha         1 O2K       0.140000
     62 H26         -7.5650    37.0210    32.2080 h4         1 O2K       0.019100
     63 H27         -4.1270    39.0980    34.3820 ha         1 O2K       0.137000
     64 H28         -1.5690    40.9860    36.2580 h1         1 O2K       0.044700
     65 H29         -2.4300    39.4470    36.0530 h1         1 O2K       0.044700
     66 H30         -2.2330    40.5560    34.6690 h1         1 O2K       0.044700
     67 O1          -9.8010    40.2810    34.5070 os         1 O2K      -0.245200
     68 O4         -12.3770    36.6040    36.3990 os         1 O2K      -0.332100
@<TRIPOS>BOND
     1     1     2 ar  
     2     1    34 ar  
     3     1    35 1   
     4     2     3 ar  
     5     2    37 1   
     6     3    33 ar  
     7     3    38 1   
     8     4    26 ar  
     9     4    28 ar  
    10     4    39 1   
    11     5     6 1   
    12     5    17 ar  
    13     5    26 ar  
    14     6     7 1   
    15     6    40 1   
    16     6    41 1   
    17     7    24 1   
    18     7    25 2   
    19     8     9 ar  
    20     8    16 ar  
    21     8    24 1   
    22     9    10 ar  
    23     9    42 1   
    24    10    11 1   
    25    10    12 ar  
    26    11    43 1   
    27    11    44 1   
    28    11    45 1   
    29    12    13 ar  
    30    12    46 1   
    31    13    16 ar  
    32    13    23 1   
    33    14    15 1   
    34    14    21 1   
    35    14    47 1   
    36    14    48 1   
    37    15    49 1   
    38    15    50 1   
    39    15    51 1   
    40    16    52 1   
    41    17    18 ar  
    42    17    68 1   
    43    18    28 ar  
    44    18    53 1   
    45    19    32 ar  
    46    19    33 ar  
    47    19    34 ar  
    48    20    21 2   
    49    21    22 1   
    50    22    23 1   
    51    22    54 1   
    52    23    55 1   
    53    23    56 1   
    54    24    57 1   
    55    27    58 1   
    56    27    59 1   
    57    27    60 1   
    58    27    68 1   
    59    28    67 1   
    60    29    30 ar  
    61    29    33 ar  
    62    29    67 1   
    63    30    31 ar  
    64    30    61 1   
    65    31    32 ar  
    66    31    62 1   
    67    34    63 1   
    68    35    36 1   
    69    36    64 1   
    70    36    65 1   
    71    36    66 1   
@<TRIPOS>SUBSTRUCTURE
     1 O2K         1 TEMP              0 ****  ****    0 ROOT
