@<TRIPOS>MOLECULE
O2L
   44    45     1     0     0
SMALL
No Charge or Current Charge


@<TRIPOS>ATOM
      1 C10         22.6690     0.1920    19.0020 c3         1 O2L       0.248500
      2 C13         21.5630     1.6120    17.1670 c3         1 O2L       0.275100
      3 C15         19.8810     3.1850    18.2850 ca         1 O2L      -0.104500
      4 C17         20.5680     5.3180    19.2800 ca         1 O2L      -0.149600
      5 C22         21.9000     5.0330    18.8950 ca         1 O2L      -0.073000
      6 C26         18.1080     0.1740    16.4680 ca         1 O2L      -0.027000
      7 C02         18.0940    -0.3310    14.0830 ca         1 O2L       0.163000
      8 C03         19.3450    -0.9610    14.2070 ca         1 O2L       0.093000
      9 C05         19.9820    -1.0250    15.4620 ca         1 O2L       0.234000
     10 C07         19.3690    -0.4540    16.5970 ca         1 O2L      -0.297500
     11 C11         24.0920     0.4180    18.4490 c3         1 O2L      -0.102600
     12 C12         22.4370     1.0080    20.2960 c3         1 O2L      -0.102600
     13 C14         21.2090     2.8930    17.9270 ca         1 O2L      -0.079300
     14 C16         19.5640     4.3760    18.9600 ca         1 O2L      -0.073000
     15 C23         22.2100     3.8400    18.2200 ca         1 O2L      -0.104500
     16 C27         17.4780     0.2340    15.2130 ca         1 O2L       0.125000
     17 F01         17.4830    -0.2700    12.8760 f          1 O2L      -0.128000
     18 F04         19.9390    -1.5040    13.1170 f          1 O2L      -0.134000
     19 F06         21.1900    -1.6280    15.5530 f          1 O2L      -0.138000
     20 F28         16.2720     0.8390    15.1010 f          1 O2L      -0.145000
     21 N09         21.6220     0.3460    17.9570 n3         1 O2L      -0.798500
     22 N19         21.2090     7.5120    20.2410 ns         1 O2L      -0.394400
     23 O20         20.9170     8.8540    20.7030 oh         1 O2L      -0.413100
     24 O21         19.0440     6.8040    20.3970 o          1 O2L      -0.566100
     25 S08         20.1780    -0.5320    18.1990 sy         1 O2L       1.199600
     26 H1          22.6680    -0.8600    19.3220 h1         1 O2L       0.075700
     27 H2          22.5350     1.7720    16.6840 h1         1 O2L       0.060700
     28 H3          20.8610     1.5220    16.3290 h1         1 O2L       0.060700
     29 H4          19.0820     2.4930    18.0370 ha         1 O2L       0.124500
     30 H5          22.7120     5.7220    19.1120 ha         1 O2L       0.127000
     31 H6          17.6060     0.6120    17.3300 ha         1 O2L       0.172000
     32 H7          24.8420     0.1070    19.1850 hc         1 O2L       0.045367
     33 H8          24.2460    -0.1740    17.5380 hc         1 O2L       0.045367
     34 H9          24.2680     1.4730    18.2130 hc         1 O2L       0.045367
     35 H10         21.4280     0.8560    20.6930 hc         1 O2L       0.045367
     36 H11         23.1460     0.6910    21.0700 hc         1 O2L       0.045367
     37 H12         22.5880     2.0790    20.1360 hc         1 O2L       0.045367
     38 H13         18.5270     4.5660    19.2300 ha         1 O2L       0.127000
     39 H14         23.2410     3.6500    17.9300 ha         1 O2L       0.124500
     40 H15         22.1040     7.3860    19.7750 hn         1 O2L       0.340500
     41 H16         21.5300     8.9770    21.4660 ho         1 O2L       0.440000
     42 C18         20.1880     6.5930    20.0120 c          1 O2L       0.619700
     43 O24         20.5870    -1.9280    18.3870 o          1 O2L      -0.527000
     44 O25         19.3750     0.1770    19.1980 o          1 O2L      -0.527000
@<TRIPOS>BOND
     1     1    11 1   
     2     1    12 1   
     3     1    21 1   
     4     1    26 1   
     5     2    13 1   
     6     2    21 1   
     7     2    27 1   
     8     2    28 1   
     9     3    13 ar  
    10     3    14 ar  
    11     3    29 1   
    12     4     5 ar  
    13     4    14 ar  
    14     4    42 1   
    15     5    15 ar  
    16     5    30 1   
    17     6    10 ar  
    18     6    16 ar  
    19     6    31 1   
    20     7     8 ar  
    21     7    16 ar  
    22     7    17 1   
    23     8     9 ar  
    24     8    18 1   
    25     9    10 ar  
    26     9    19 1   
    27    10    25 1   
    28    11    32 1   
    29    11    33 1   
    30    11    34 1   
    31    12    35 1   
    32    12    36 1   
    33    12    37 1   
    34    13    15 ar  
    35    14    38 1   
    36    15    39 1   
    37    16    20 1   
    38    21    25 1   
    39    22    23 1   
    40    22    40 1   
    41    22    42 1   
    42    23    41 1   
    43    24    42 2   
    44    25    43 2   
    45    25    44 2   
@<TRIPOS>SUBSTRUCTURE
     1 O2L         1 TEMP              0 ****  ****    0 ROOT
