@<TRIPOS>MOLECULE
O2L
   44    45     1     0     0
SMALL
abcg2


@<TRIPOS>ATOM
      1 C10         22.1680     0.6440    18.2930 c3         1 O2L       0.248500
      2 C13         20.6190     2.3650    17.2350 c3         1 O2L       0.275100
      3 C15         19.9370     3.5100    19.3840 ca         1 O2L      -0.104500
      4 C17         20.8840     5.6300    20.0360 ca         1 O2L      -0.149600
      5 C22         21.6320     5.6400    18.8640 ca         1 O2L      -0.073000
      6 C26         18.2430    -0.4350    15.5920 ca         1 O2L      -0.027000
      7 C02         18.9620    -2.0090    13.9280 ca         1 O2L       0.163000
      8 C03         20.0840    -2.2980    14.6820 ca         1 O2L       0.093000
      9 C05         20.2800    -1.6660    15.8960 ca         1 O2L       0.234000
     10 C07         19.3640    -0.7360    16.3560 ca         1 O2L      -0.297500
     11 C11         23.2150     0.9470    17.2310 c3         1 O2L      -0.102600
     12 C12         22.5420     1.2420    19.6430 c3         1 O2L      -0.102600
     13 C14         20.7000     3.5070    18.2180 ca         1 O2L      -0.079300
     14 C16         20.0210     4.5610    20.2770 ca         1 O2L      -0.073000
     15 C23         21.5370     4.5860    17.9650 ca         1 O2L      -0.104500
     16 C27         18.0550    -1.0690    14.3850 ca         1 O2L       0.125000
     17 F01         18.7650    -2.6390    12.7820 f          1 O2L      -0.128000
     18 F04         20.9610    -3.1880    14.2420 f          1 O2L      -0.134000
     19 F06         21.3690    -1.9740    16.5910 f          1 O2L      -0.138000
     20 F28         16.9870    -0.7990    13.6400 f          1 O2L      -0.145000
     21 N09         20.8170     1.0610    17.8570 n3         1 O2L      -0.798500
     22 N19         22.1260     7.3180    21.1740 ns         1 O2L      -0.394400
     23 O20         22.2700     8.4340    21.9360 oh         1 O2L      -0.413100
     24 O21         19.9440     7.0490    21.6970 o          1 O2L      -0.566100
     25 S08         19.5570     0.0360    17.9600 sy         1 O2L       1.199600
     26 H1          22.1390    -0.4350    18.4200 h1         1 O2L       0.075700
     27 H2          21.3590     2.5020    16.4470 h1         1 O2L       0.060700
     28 H3          19.6510     2.3870    16.7330 h1         1 O2L       0.060700
     29 H4          19.2770     2.6830    19.6060 ha         1 O2L       0.124500
     30 H5          22.2860     6.4700    18.6240 ha         1 O2L       0.127000
     31 H6          17.5100     0.2820    15.9350 ha         1 O2L       0.172000
     32 H7          24.1530     0.4730    17.5190 hc         1 O2L       0.045367
     33 H8          22.9260     0.5530    16.2560 hc         1 O2L       0.045367
     34 H9          23.4100     2.0150    17.1310 hc         1 O2L       0.045367
     35 H10         21.7740     1.0400    20.3900 hc         1 O2L       0.045367
     36 H11         23.4730     0.7900    19.9880 hc         1 O2L       0.045367
     37 H12         22.6950     2.3190    19.5880 hc         1 O2L       0.045367
     38 H13         19.4220     4.5460    21.1770 ha         1 O2L       0.127000
     39 H14         22.1300     4.6050    17.0580 ha         1 O2L       0.124500
     40 H15         22.9470     7.0400    20.6560 hn         1 O2L       0.340500
     41 H16         22.5160     8.1320    22.8200 ho         1 O2L       0.440000
     42 C18         20.9210     6.7350    21.0390 c          1 O2L       0.619700
     43 O24         19.8920    -1.0140    18.9010 o          1 O2L      -0.527000
     44 O25         18.3410     0.8090    18.1510 o          1 O2L      -0.527000
@<TRIPOS>BOND
     1     1    11 1   
     2     1    12 1   
     3     1    21 1   
     4     1    26 1   
     5     2    13 1   
     6     2    21 1   
     7     2    27 1   
     8     2    28 1   
     9     3    13 ar  
    10     3    14 ar  
    11     3    29 1   
    12     4     5 ar  
    13     4    14 ar  
    14     4    42 1   
    15     5    15 ar  
    16     5    30 1   
    17     6    10 ar  
    18     6    16 ar  
    19     6    31 1   
    20     7     8 ar  
    21     7    16 ar  
    22     7    17 1   
    23     8     9 ar  
    24     8    18 1   
    25     9    10 ar  
    26     9    19 1   
    27    10    25 1   
    28    11    32 1   
    29    11    33 1   
    30    11    34 1   
    31    12    35 1   
    32    12    36 1   
    33    12    37 1   
    34    13    15 ar  
    35    14    38 1   
    36    15    39 1   
    37    16    20 1   
    38    21    25 1   
    39    22    23 1   
    40    22    40 1   
    41    22    42 1   
    42    23    41 1   
    43    24    42 2   
    44    25    43 2   
    45    25    44 2   
@<TRIPOS>SUBSTRUCTURE
     1 O2L         1 TEMP              0 ****  ****    0 ROOT
