@<TRIPOS>MOLECULE
O2N
   77    81     1     0     0
SMALL
No Charge or Current Charge


@<TRIPOS>ATOM
      1 C1         -36.7210    34.5000   -18.4780 ca         1 O2N      -0.112000
      2 C2         -36.8330    35.6540   -17.6900 ca         1 O2N      -0.099000
      3 C3         -36.9000    33.2360   -17.8960 ca         1 O2N      -0.077000
      4 C4         -37.1130    35.5410   -16.3200 ca         1 O2N      -0.082000
      5 C5         -33.5110    33.1680   -11.8010 ca         1 O2N      -0.123000
      6 C6         -36.3700    29.5100   -13.0690 ca         1 O2N      -0.054250
      7 C7         -34.1830    29.7230   -14.1070 ca         1 O2N      -0.054250
      8 C8         -35.9240    27.1970   -16.5100 ca         1 O2N      -0.054250
      9 C9         -34.5710    28.9680   -17.4790 ca         1 O2N      -0.054250
     10 C10        -32.1340    33.2920   -11.5370 ca         1 O2N      -0.124000
     11 C11        -35.7690    29.5650   -11.8000 ca         1 O2N      -0.172000
     12 C12        -33.5820    29.7750   -12.8380 ca         1 O2N      -0.172000
     13 C13        -35.3120    26.2650   -17.3650 ca         1 O2N      -0.172000
     14 C14        -33.9600    28.0340   -18.3340 ca         1 O2N      -0.172000
     15 C15        -37.2080    33.1110   -16.5230 ca         1 O2N      -0.099600
     16 C16        -33.0970    33.3830   -14.2180 ca         1 O2N      -0.064600
     17 C17        -35.5800    29.5830   -14.2340 ca         1 O2N      -0.119800
     18 C18        -35.5620    28.5580   -16.5590 ca         1 O2N      -0.119800
     19 C19        -37.3010    34.2780   -15.7190 ca         1 O2N      -0.030300
     20 C20        -34.0050    33.2180   -13.1310 ca         1 O2N      -0.071300
     21 C21        -31.2700    33.4560   -12.6220 ca         1 O2N       0.027100
     22 C22        -31.7300    33.4990   -13.9100 ca         1 O2N       0.053100
     23 C23        -34.3780    29.6930   -11.6750 ca         1 O2N       0.129600
     24 C24        -34.3310    26.6740   -18.2800 ca         1 O2N       0.129600
     25 C26        -37.2890    34.2240   -11.1610 c2         1 O2N      -0.239200
     26 C27        -37.4040    31.7340   -15.9580 c          1 O2N       0.603700
     27 C29        -29.5370    33.8030   -13.9450 c5         1 O2N       0.364600
     28 C32        -37.5260    34.2360   -14.2020 c3         1 O2N       0.227100
     29 C33        -35.5040    33.0570   -13.3710 c3         1 O2N       0.231100
     30 C34        -36.4090    35.0070   -12.1210 c3         1 O2N       0.206000
     31 C35        -36.2480    29.5410   -15.6060 c3         1 O2N       0.216300
     32 N36        -36.3430    30.8880   -16.1530 ns         1 O2N      -0.504900
     33 N37        -36.2580    34.3350   -13.4330 n3         1 O2N      -0.717600
     34 O38        -33.4020    34.4840   -16.2700 o          1 O2N      -0.714500
     35 O39        -38.4420    31.3770   -15.4190 o          1 O2N      -0.656100
     36 O40        -33.9620    32.4020   -16.1760 o          1 O2N      -0.714500
     37 O41        -29.9190    33.5580   -12.5460 os         1 O2N      -0.377100
     38 O42        -30.7140    33.6250   -14.8060 os         1 O2N      -0.324100
     39 O43        -33.8440    29.7320   -10.4030 os         1 O2N      -0.357600
     40 O44        -33.7660    25.7140   -19.0940 os         1 O2N      -0.357600
     41 H1         -36.4940    34.5840   -19.5380 ha         1 O2N       0.098000
     42 H2         -36.6890    36.6350   -18.1370 ha         1 O2N       0.100000
     43 H3         -36.8170    32.3480   -18.5180 ha         1 O2N       0.106000
     44 H4         -37.1700    36.4410   -15.7120 ha         1 O2N       0.105000
     45 H5         -34.2000    33.0260   -10.9730 ha         1 O2N       0.096000
     46 H10        -31.7510    33.2520   -10.5200 ha         1 O2N       0.112000
     47 H6         -37.4510    29.4160   -13.1460 ha         1 O2N       0.121500
     48 H11        -36.3870    29.5080   -10.9070 ha         1 O2N       0.114000
     49 H7         -33.5570    29.7990   -14.9930 ha         1 O2N       0.121500
     50 H12        -32.5040    29.8870   -12.7780 ha         1 O2N       0.114000
     51 H8         -36.6800    26.8590   -15.8040 ha         1 O2N       0.121500
     52 H13        -35.6010    25.2180   -17.3180 ha         1 O2N       0.114000
     53 H9         -34.2620    30.0090   -17.5350 ha         1 O2N       0.121500
     54 H14        -33.2010    28.3850   -19.0280 ha         1 O2N       0.114000
     55 H35        -37.2730    29.1710   -15.4690 h1         1 O2N       0.070700
     56 H321       -38.1740    35.0890   -13.9540 h1         1 O2N       0.035200
     57 H322       -38.0850    33.3400   -13.9070 h1         1 O2N       0.035200
     58 H331       -35.6230    32.5090   -14.3050 h1         1 O2N       0.038200
     59 H332       -35.9240    32.4020   -12.5950 h1         1 O2N       0.038200
     60 H251       -39.1750    35.1340   -11.5610 ha         1 O2N       0.152500
     61 H252       -39.1760    33.7900   -10.2770 ha         1 O2N       0.152500
     62 H26        -36.7500    33.4780   -10.5760 ha         1 O2N       0.164000
     63 H341       -36.8390    36.0080   -12.2630 h1         1 O2N       0.062200
     64 H342       -35.4250    35.1630   -11.6580 h1         1 O2N       0.062200
     65 H36        -35.4800    31.3430   -16.4510 hn         1 O2N       0.403500
     66 H291       -29.1830    34.8360   -14.0400 h2         1 O2N       0.045700
     67 H292       -28.7490    33.1030   -14.2440 h2         1 O2N       0.045700
     68 H301       -32.2180    29.8000    -9.0930 h1         1 O2N       0.037533
     69 H302       -31.9300    28.8990   -10.5960 h1         1 O2N       0.037533
     70 H303       -31.9850    30.6800   -10.6160 h1         1 O2N       0.037533
     71 H311       -32.4410    25.1270   -20.6010 h1         1 O2N       0.037533
     72 H312       -33.1270    26.7530   -20.8010 h1         1 O2N       0.037533
     73 H313       -31.8640    26.4570   -19.5750 h1         1 O2N       0.037533
     74 C25        -38.6120    34.3920   -10.9920 c2         1 O2N      -0.337000
     75 C28        -33.5460    33.4330   -15.6590 c          1 O2N       0.743600
     76 C30        -32.4250    29.7810   -10.1700 c3         1 O2N       0.151400
     77 C31        -32.7510    26.0320   -20.0630 c3         1 O2N       0.151400
@<TRIPOS>BOND
     1     1     2 ar  
     2     1     3 ar  
     3     1    41 1   
     4     2     4 ar  
     5     2    42 1   
     6     3    15 ar  
     7     3    43 1   
     8     4    19 ar  
     9     4    44 1   
    10     5    10 ar  
    11     5    20 ar  
    12     5    45 1   
    13     6    11 ar  
    14     6    17 ar  
    15     6    47 1   
    16     7    12 ar  
    17     7    17 ar  
    18     7    49 1   
    19     8    13 ar  
    20     8    18 ar  
    21     8    51 1   
    22     9    14 ar  
    23     9    18 ar  
    24     9    53 1   
    25    10    21 ar  
    26    10    46 1   
    27    11    23 ar  
    28    11    48 1   
    29    12    23 ar  
    30    12    50 1   
    31    13    24 ar  
    32    13    52 1   
    33    14    24 ar  
    34    14    54 1   
    35    15    19 ar  
    36    15    26 1   
    37    16    20 ar  
    38    16    22 ar  
    39    16    75 1   
    40    17    31 1   
    41    18    31 1   
    42    19    28 1   
    43    20    29 1   
    44    21    22 ar  
    45    21    37 1   
    46    22    38 1   
    47    23    39 1   
    48    24    40 1   
    49    25    30 1   
    50    25    62 1   
    51    25    74 2   
    52    26    32 1   
    53    26    35 2   
    54    27    37 1   
    55    27    38 1   
    56    27    66 1   
    57    27    67 1   
    58    28    33 1   
    59    28    56 1   
    60    28    57 1   
    61    29    33 1   
    62    29    58 1   
    63    29    59 1   
    64    30    33 1   
    65    30    63 1   
    66    30    64 1   
    67    31    32 1   
    68    31    55 1   
    69    32    65 1   
    70    34    75 1   
    71    36    75 1   
    72    39    76 1   
    73    40    77 1   
    74    60    74 1   
    75    61    74 1   
    76    68    76 1   
    77    69    76 1   
    78    70    76 1   
    79    71    77 1   
    80    72    77 1   
    81    73    77 1   
@<TRIPOS>SUBSTRUCTURE
     1 O2N         1 TEMP              0 ****  ****    0 ROOT
