@<TRIPOS>MOLECULE
O2N
   77    81     1     0     0
SMALL
abcg2


@<TRIPOS>ATOM
      1 C1         -36.6450    34.2670   -18.6970 ca         1 O2N      -0.112000
      2 C2         -36.8790    35.3910   -17.9090 ca         1 O2N      -0.099000
      3 C3         -36.7480    33.0040   -18.1330 ca         1 O2N      -0.077000
      4 C4         -37.2130    35.2360   -16.5720 ca         1 O2N      -0.082000
      5 C5         -34.1650    32.9810   -11.2810 ca         1 O2N      -0.123000
      6 C6         -35.4950    29.4980   -12.8790 ca         1 O2N      -0.054250
      7 C7         -33.5960    29.5410   -14.3320 ca         1 O2N      -0.054250
      8 C8         -35.6210    27.1990   -16.2380 ca         1 O2N      -0.054250
      9 C9         -34.9470    28.9910   -17.6670 ca         1 O2N      -0.054250
     10 C10        -32.8670    33.0610   -10.7590 ca         1 O2N      -0.124000
     11 C11        -34.6610    29.5250   -11.7750 ca         1 O2N      -0.172000
     12 C12        -32.7420    29.5770   -13.2340 ca         1 O2N      -0.172000
     13 C13        -35.2050    26.2770   -17.1810 ca         1 O2N      -0.172000
     14 C14        -34.5180    28.0770   -18.6300 ca         1 O2N      -0.172000
     15 C15        -37.0880    32.8520   -16.7860 ca         1 O2N      -0.099600
     16 C16        -33.4130    33.5140   -13.5330 ca         1 O2N      -0.064600
     17 C17        -34.9770    29.5100   -14.1750 ca         1 O2N      -0.119800
     18 C18        -35.4950    28.5730   -16.4630 ca         1 O2N      -0.119800
     19 C19        -37.3210    33.9720   -15.9850 ca         1 O2N      -0.030300
     20 C20        -34.4500    33.1830   -12.6290 ca         1 O2N      -0.071300
     21 C21        -31.8720    33.3540   -11.6580 ca         1 O2N       0.027100
     22 C22        -32.1450    33.5820   -12.9990 ca         1 O2N       0.053100
     23 C23        -33.2760    29.5710   -11.9450 ca         1 O2N       0.129600
     24 C24        -34.6420    26.7120   -18.3870 ca         1 O2N       0.129600
     25 C26        -37.7560    34.9730   -11.6560 c2         1 O2N      -0.239200
     26 C27        -37.1980    31.4430   -16.2650 c          1 O2N       0.603700
     27 C29        -29.9240    33.5440   -12.7340 c5         1 O2N       0.364600
     28 C32        -37.6480    33.8920   -14.5090 c3         1 O2N       0.227100
     29 C33        -35.8610    32.9850   -13.1150 c3         1 O2N       0.231100
     30 C34        -36.6970    35.2560   -12.6870 c3         1 O2N       0.206000
     31 C35        -35.9140    29.5430   -15.3700 c3         1 O2N       0.216300
     32 N36        -36.0350    30.9120   -15.8620 ns         1 O2N      -0.504900
     33 N37        -36.4790    34.1890   -13.6680 n3         1 O2N      -0.717600
     34 O38        -33.4330    34.9400   -15.4190 o          1 O2N      -0.714500
     35 O39        -38.2770    30.8410   -16.2620 o          1 O2N      -0.656100
     36 O40        -33.9100    32.7740   -15.7360 o          1 O2N      -0.714500
     37 O41        -30.5220    33.4990   -11.4280 os         1 O2N      -0.377100
     38 O42        -30.9670    33.8820   -13.6570 os         1 O2N      -0.324100
     39 O43        -32.5310    29.6050   -10.8070 os         1 O2N      -0.357600
     40 O44        -34.2510    25.7350   -19.2530 os         1 O2N      -0.357600
     41 H1         -36.3830    34.3740   -19.7420 ha         1 O2N       0.098000
     42 H2         -36.8020    36.3820   -18.3380 ha         1 O2N       0.100000
     43 H3         -36.5600    32.1230   -18.7340 ha         1 O2N       0.106000
     44 H4         -37.3920    36.1120   -15.9580 ha         1 O2N       0.105000
     45 H5         -34.9800    32.7280   -10.6150 ha         1 O2N       0.096000
     46 H10        -32.6600    32.8840    -9.7130 ha         1 O2N       0.112000
     47 H6         -36.5680    29.4790   -12.7340 ha         1 O2N       0.121500
     48 H11        -35.0660    29.5240   -10.7710 ha         1 O2N       0.114000
     49 H7         -33.1680    29.5430   -15.3260 ha         1 O2N       0.121500
     50 H12        -31.6740    29.6120   -13.3930 ha         1 O2N       0.114000
     51 H8         -36.0490    26.8480   -15.3060 ha         1 O2N       0.121500
     52 H13        -35.3070    25.2130   -17.0030 ha         1 O2N       0.114000
     53 H9         -34.8440    30.0490   -17.8710 ha         1 O2N       0.121500
     54 H14        -34.0930    28.4420   -19.5530 ha         1 O2N       0.114000
     55 H35        -36.9060    29.2530   -15.0240 h1         1 O2N       0.070700
     56 H321       -38.4260    34.6270   -14.2970 h1         1 O2N       0.035200
     57 H322       -38.0750    32.9160   -14.2580 h1         1 O2N       0.035200
     58 H331       -35.8540    32.2410   -13.9040 h1         1 O2N       0.038200
     59 H332       -36.4560    32.5560   -12.2950 h1         1 O2N       0.038200
     60 H251       -39.0480    36.5710   -12.1180 ha         1 O2N       0.152500
     61 H252       -39.5990    35.4610   -10.7450 ha         1 O2N       0.152500
     62 H26        -37.5940    34.1060   -11.0210 ha         1 O2N       0.164000
     63 H341       -36.9520    36.1720   -13.2260 h1         1 O2N       0.062200
     64 H342       -35.7400    35.4300   -12.1880 h1         1 O2N       0.062200
     65 H36        -35.2120    31.5230   -15.8340 hn         1 O2N       0.403500
     66 H291       -29.1540    34.3110   -12.7550 h2         1 O2N       0.045700
     67 H292       -29.5270    32.5540   -12.9810 h2         1 O2N       0.045700
     68 H301       -30.7280    29.7600    -9.9170 h1         1 O2N       0.037533
     69 H302       -30.6960    28.8480   -11.4480 h1         1 O2N       0.037533
     70 H303       -30.8390    30.6260   -11.4680 h1         1 O2N       0.037533
     71 H311       -33.3960    25.2090   -21.0020 h1         1 O2N       0.037533
     72 H312       -34.3340    26.7210   -21.0890 h1         1 O2N       0.037533
     73 H313       -32.7340    26.7080   -20.3020 h1         1 O2N       0.037533
     74 C25        -38.8560    35.7000   -11.4980 c2         1 O2N      -0.337000
     75 C28        -33.6170    33.7690   -15.0210 c          1 O2N       0.743600
     76 C30        -31.1150    29.7160   -10.9320 c3         1 O2N       0.151400
     77 C31        -33.6440    26.1310   -20.4810 c3         1 O2N       0.151400
@<TRIPOS>BOND
     1     1     2 ar  
     2     1     3 ar  
     3     1    41 1   
     4     2     4 ar  
     5     2    42 1   
     6     3    15 ar  
     7     3    43 1   
     8     4    19 ar  
     9     4    44 1   
    10     5    10 ar  
    11     5    20 ar  
    12     5    45 1   
    13     6    11 ar  
    14     6    17 ar  
    15     6    47 1   
    16     7    12 ar  
    17     7    17 ar  
    18     7    49 1   
    19     8    13 ar  
    20     8    18 ar  
    21     8    51 1   
    22     9    14 ar  
    23     9    18 ar  
    24     9    53 1   
    25    10    21 ar  
    26    10    46 1   
    27    11    23 ar  
    28    11    48 1   
    29    12    23 ar  
    30    12    50 1   
    31    13    24 ar  
    32    13    52 1   
    33    14    24 ar  
    34    14    54 1   
    35    15    19 ar  
    36    15    26 1   
    37    16    20 ar  
    38    16    22 ar  
    39    16    75 1   
    40    17    31 1   
    41    18    31 1   
    42    19    28 1   
    43    20    29 1   
    44    21    22 ar  
    45    21    37 1   
    46    22    38 1   
    47    23    39 1   
    48    24    40 1   
    49    25    30 1   
    50    25    62 1   
    51    25    74 2   
    52    26    32 1   
    53    26    35 2   
    54    27    37 1   
    55    27    38 1   
    56    27    66 1   
    57    27    67 1   
    58    28    33 1   
    59    28    56 1   
    60    28    57 1   
    61    29    33 1   
    62    29    58 1   
    63    29    59 1   
    64    30    33 1   
    65    30    63 1   
    66    30    64 1   
    67    31    32 1   
    68    31    55 1   
    69    32    65 1   
    70    34    75 1   
    71    36    75 1   
    72    39    76 1   
    73    40    77 1   
    74    60    74 1   
    75    61    74 1   
    76    68    76 1   
    77    69    76 1   
    78    70    76 1   
    79    71    77 1   
    80    72    77 1   
    81    73    77 1   
@<TRIPOS>SUBSTRUCTURE
     1 O2N         1 TEMP              0 ****  ****    0 ROOT
