@<TRIPOS>MOLECULE
O2O
   43    46     1     0     0
SMALL
abcg2


@<TRIPOS>ATOM
      1 N1           1.1680    32.2860   -21.3160 ns         1 O2O      -0.137000
      2 C4           2.8360    27.9430   -21.7720 ca         1 O2O      -0.118000
      3 C5           1.9960    29.0010   -22.1030 ca         1 O2O       0.190000
      4 C6           1.5300    31.4890   -22.3500 c          1 O2O       0.620700
      5 C7           0.4270    33.4860   -21.3320 ca         1 O2O      -0.043000
      6 C8           0.0140    34.1070   -22.5120 ca         1 O2O      -0.069000
      7 C10         -1.7500    37.1360   -22.6720 cc         1 O2O       0.606200
      8 C13          0.1350    34.0440   -20.0710 ca         1 O2O      -0.143000
      9 C15         -2.8770    39.3160   -22.3170 ca         1 O2O      -0.072000
     10 C17         -3.6880    40.5820   -24.1820 ca         1 O2O      -0.087000
     11 O1           6.1680    30.9740   -20.4520 o          1 O2O      -0.387500
     12 O            6.5530    28.8560   -20.2880 o          1 O2O      -0.387500
     13 C2           4.4980    29.5190   -21.1080 ca         1 O2O      -0.176200
     14 C1           3.6660    30.5820   -21.4250 ca         1 O2O      -0.021000
     15 C3           4.1020    28.1990   -21.2740 ca         1 O2O      -0.022000
     16 C            2.4000    30.3290   -21.9370 ca         1 O2O      -0.157600
     17 O2           1.2330    31.6670   -23.5240 o          1 O2O      -0.547100
     18 C12         -0.5660    35.2350   -19.9400 ca         1 O2O      -0.061000
     19 C11         -0.9580    35.8360   -21.1190 ca         1 O2O       0.010100
     20 O3          -1.6410    37.0090   -21.3060 os         1 O2O      -0.289700
     21 C9          -0.6870    35.3010   -22.3780 ca         1 O2O       0.088400
     22 N2          -1.2110    36.1610   -23.3400 nd         1 O2O      -0.569100
     23 C14         -2.4260    38.3170   -23.1860 ca         1 O2O      -0.125900
     24 C16         -3.5130    40.4560   -22.8030 ca         1 O2O      -0.085300
     25 C18         -3.2430    39.5920   -25.0540 ca         1 O2O      -0.118000
     26 C19         -2.6120    38.4590   -24.5650 ca         1 O2O      -0.062000
     27 H1           1.4610    31.9760   -20.4000 hn         1 O2O       0.156000
     28 H2           2.4950    26.9260   -21.9010 ha         1 O2O       0.149000
     29 H4           0.2330    33.6840   -23.4780 ha         1 O2O       0.169000
     30 H5           0.4710    33.5280   -19.1810 ha         1 O2O       0.116000
     31 H6          -2.7250    39.2060   -21.2520 ha         1 O2O       0.126000
     32 H7          -4.1740    41.4660   -24.5770 ha         1 O2O       0.115000
     33 H8          -5.0450    41.3020   -21.5540 hc         1 O2O       0.045033
     34 H9          -3.4080    41.5580   -20.9540 hc         1 O2O       0.045033
     35 H10         -4.0110    42.4970   -22.3310 hc         1 O2O       0.045033
     36 H11          4.0050    31.5970   -21.2800 ha         1 O2O       0.163000
     37 H12          4.7680    27.3900   -21.0180 ha         1 O2O       0.161000
     38 H13         -0.7850    35.6590   -18.9700 ha         1 O2O       0.137000
     39 H14         -3.3860    39.7100   -26.1210 ha         1 O2O       0.120000
     40 H15         -2.2610    37.6890   -25.2370 ha         1 O2O       0.139000
     41 CL1          0.4040    28.6370   -22.6900 cl         1 O2O      -0.148000
     42 C20         -4.0160    41.5140   -21.8590 c3         1 O2O      -0.046800
     43 N            5.8340    29.8030   -20.5790 no         1 O2O       0.675200
@<TRIPOS>BOND
     1     1     4 1   
     2     1     5 1   
     3     1    27 1   
     4     2     3 ar  
     5     2    15 ar  
     6     2    28 1   
     7     3    16 ar  
     8     3    41 1   
     9     4    16 1   
    10     4    17 2   
    11     5     6 ar  
    12     5     8 ar  
    13     6    21 ar  
    14     6    29 1   
    15     7    20 1   
    16     7    22 2   
    17     7    23 1   
    18     8    18 ar  
    19     8    30 1   
    20     9    23 ar  
    21     9    24 ar  
    22     9    31 1   
    23    10    24 ar  
    24    10    25 ar  
    25    10    32 1   
    26    11    43 1   
    27    12    43 1   
    28    13    14 ar  
    29    13    15 ar  
    30    13    43 1   
    31    14    16 ar  
    32    14    36 1   
    33    15    37 1   
    34    18    19 ar  
    35    18    38 1   
    36    19    20 1   
    37    19    21 ar  
    38    21    22 1   
    39    23    26 ar  
    40    24    42 1   
    41    25    26 ar  
    42    25    39 1   
    43    26    40 1   
    44    33    42 1   
    45    34    42 1   
    46    35    42 1   
@<TRIPOS>SUBSTRUCTURE
     1 O2O         1 TEMP              0 ****  ****    0 ROOT
