@<TRIPOS>MOLECULE
O2O
   43    46     1     0     0
SMALL
No Charge or Current Charge


@<TRIPOS>ATOM
      1 N1           1.3960    32.3810   -21.4850 ns         1 O2O      -0.137000
      2 C4           3.1270    27.9220   -22.3680 ca         1 O2O      -0.118000
      3 C5           2.3330    29.0110   -22.7580 ca         1 O2O       0.190000
      4 C6           1.6330    31.4650   -22.5050 c          1 O2O       0.620700
      5 C7           0.7050    33.6260   -21.4490 ca         1 O2O      -0.043000
      6 C8           0.0180    34.1750   -22.5650 ca         1 O2O      -0.069000
      7 C10         -1.7220    37.1970   -22.6390 cc         1 O2O       0.606200
      8 C13          0.7110    34.3360   -20.2220 ca         1 O2O      -0.143000
      9 C15         -2.8680    39.4080   -22.3080 ca         1 O2O      -0.072000
     10 C17         -4.0840    40.4690   -24.1280 ca         1 O2O      -0.087000
     11 O1           5.3070    30.5160   -18.9850 o          1 O2O      -0.387500
     12 O            5.9060    28.4370   -19.2620 o          1 O2O      -0.387500
     13 C2           4.2140    29.2800   -20.6630 ca         1 O2O      -0.176200
     14 C1           3.4140    30.3800   -21.0540 ca         1 O2O      -0.021000
     15 C3           4.0630    28.0470   -21.3310 ca         1 O2O      -0.022000
     16 C            2.4650    30.2630   -22.1040 ca         1 O2O      -0.157600
     17 O2           1.2540    31.6440   -23.6560 o          1 O2O      -0.547100
     18 C12          0.0500    35.5760   -20.0970 ca         1 O2O      -0.061000
     19 C11         -0.6100    36.0750   -21.2240 ca         1 O2O       0.010100
     20 O3          -1.2990    37.2370   -21.3130 os         1 O2O      -0.289700
     21 C9          -0.6300    35.4080   -22.4110 ca         1 O2O       0.088400
     22 N2          -1.3470    36.1160   -23.3500 nd         1 O2O      -0.569100
     23 C14         -2.5300    38.3190   -23.1460 ca         1 O2O      -0.125900
     24 C16         -3.6400    40.4810   -22.7940 ca         1 O2O      -0.085300
     25 C18         -3.7560    39.3950   -24.9700 ca         1 O2O      -0.118000
     26 C19         -2.9840    38.3270   -24.4840 ca         1 O2O      -0.062000
     27 H1           1.7710    32.1020   -20.5880 hn         1 O2O       0.156000
     28 H2           3.0090    26.9650   -22.8710 ha         1 O2O       0.149000
     29 H4          -0.0280    33.6780   -23.5280 ha         1 O2O       0.169000
     30 H5           1.2320    33.9260   -19.3590 ha         1 O2O       0.116000
     31 H6          -2.5340    39.4270   -21.2730 ha         1 O2O       0.126000
     32 H7          -4.6840    41.2910   -24.5130 ha         1 O2O       0.115000
     33 H8          -4.9020    41.4200   -21.3010 hc         1 O2O       0.045033
     34 H9          -3.1890    41.8510   -21.1660 hc         1 O2O       0.045033
     35 H10         -4.1790    42.5620   -22.4460 hc         1 O2O       0.045033
     36 H11          3.5530    31.3360   -20.5520 ha         1 O2O       0.163000
     37 H12          4.6620    27.1800   -21.0540 ha         1 O2O       0.161000
     38 H13          0.0510    36.1270   -19.1590 ha         1 O2O       0.137000
     39 H14         -4.1010    39.3900   -26.0020 ha         1 O2O       0.120000
     40 H15         -2.7400    37.5040   -25.1540 ha         1 O2O       0.139000
     41 Cl1          1.1460    28.7100   -24.0320 cl         1 O2O      -0.148000
     42 C20         -3.9970    41.6420   -21.8780 c3         1 O2O      -0.046800
     43 N            5.2170    29.4220   -19.5570 no         1 O2O       0.675200
@<TRIPOS>BOND
     1     1     4 1   
     2     1     5 1   
     3     1    27 1   
     4     2     3 ar  
     5     2    15 ar  
     6     2    28 1   
     7     3    16 ar  
     8     3    41 1   
     9     4    16 1   
    10     4    17 2   
    11     5     6 ar  
    12     5     8 ar  
    13     6    21 ar  
    14     6    29 1   
    15     7    20 1   
    16     7    22 2   
    17     7    23 1   
    18     8    18 ar  
    19     8    30 1   
    20     9    23 ar  
    21     9    24 ar  
    22     9    31 1   
    23    10    24 ar  
    24    10    25 ar  
    25    10    32 1   
    26    11    43 1   
    27    12    43 1   
    28    13    14 ar  
    29    13    15 ar  
    30    13    43 1   
    31    14    16 ar  
    32    14    36 1   
    33    15    37 1   
    34    18    19 ar  
    35    18    38 1   
    36    19    20 1   
    37    19    21 ar  
    38    21    22 1   
    39    23    26 ar  
    40    24    42 1   
    41    25    26 ar  
    42    25    39 1   
    43    26    40 1   
    44    33    42 1   
    45    34    42 1   
    46    35    42 1   
@<TRIPOS>SUBSTRUCTURE
     1 O2O         1 TEMP              0 ****  ****    0 ROOT
