@<TRIPOS>MOLECULE
O2P
   33    34     1     0     0
SMALL
abcg2


@<TRIPOS>ATOM
      1 N1          -0.1130     0.2090     0.1630 ns         1 O2P      -0.147000
      2 C4          -2.1220    -1.0150     0.9100 ca         1 O2P      -0.110000
      3 C5          -1.4950    -0.0110     0.1740 ca         1 O2P      -0.056000
      4 C6           0.8750    -0.6940     0.3860 c          1 O2P       0.618700
      5 C7           2.2510    -0.1120     0.3060 ca         1 O2P      -0.158600
      6 C8           2.5250     1.0690     0.9920 ca         1 O2P      -0.085000
      7 C10          4.8060     0.9800     0.2750 ca         1 O2P      -0.085000
      8 C15         -3.6720     0.7400    -0.5670 ca         1 O2P      -0.102000
      9 C2          -4.3030    -0.2670     0.1580 ca         1 O2P      -0.085300
     10 C3          -3.5030    -1.1370     0.8920 ca         1 O2P      -0.096000
     11 O1           0.6780    -1.8700     0.6370 o          1 O2P      -0.576100
     12 C9           3.8000     1.6150     0.9870 ca         1 O2P      -0.121000
     13 C11          4.5310    -0.1910    -0.4180 ca         1 O2P      -0.123000
     14 C12          3.2630    -0.7670    -0.4110 ca         1 O2P      -0.020300
     15 C14         -2.2920     0.8690    -0.5680 ca         1 O2P       0.051100
     16 O2          -1.7110     1.9020    -1.2510 oh         1 O2P      -0.566100
     17 H1           0.1730     1.1220    -0.1570 hn         1 O2P       0.165000
     18 H2          -1.5400    -1.7000     1.5060 ha         1 O2P       0.143000
     19 H3           1.7430     1.5600     1.5570 ha         1 O2P       0.119000
     20 H4           5.8050     1.3950     0.2540 ha         1 O2P       0.116000
     21 H5           2.9420    -2.8960    -0.5190 hc         1 O2P       0.051700
     22 H6           2.1200    -1.9950    -1.7810 hc         1 O2P       0.051700
     23 H7           3.8630    -2.2210    -1.8590 hc         1 O2P       0.051700
     24 H8          -4.2560     1.4450    -1.1460 ha         1 O2P       0.123000
     25 H9          -6.0890    -1.2170    -0.5680 hc         1 O2P       0.042367
     26 H10         -6.1900    -0.6930     1.1040 hc         1 O2P       0.042367
     27 H11         -6.2890     0.4900    -0.2000 hc         1 O2P       0.042367
     28 H12         -3.9640    -1.9260     1.4740 ha         1 O2P       0.116000
     29 H13          4.0010     2.5270     1.5320 ha         1 O2P       0.119000
     30 H14          5.3200    -0.6700    -0.9850 ha         1 O2P       0.116000
     31 H15         -1.3000     1.5770    -2.0620 ho         1 O2P       0.456000
     32 C13          3.0300    -2.0350    -1.1820 c3         1 O2P      -0.052800
     33 C1          -5.7950    -0.4250     0.1240 c3         1 O2P      -0.043800
@<TRIPOS>BOND
     1     1     3 1   
     2     1     4 1   
     3     1    17 1   
     4     2     3 ar  
     5     2    10 ar  
     6     2    18 1   
     7     3    15 ar  
     8     4     5 1   
     9     4    11 2   
    10     5     6 ar  
    11     5    14 ar  
    12     6    12 ar  
    13     6    19 1   
    14     7    12 ar  
    15     7    13 ar  
    16     7    20 1   
    17     8     9 ar  
    18     8    15 ar  
    19     8    24 1   
    20     9    10 ar  
    21     9    33 1   
    22    10    28 1   
    23    12    29 1   
    24    13    14 ar  
    25    13    30 1   
    26    14    32 1   
    27    15    16 1   
    28    16    31 1   
    29    21    32 1   
    30    22    32 1   
    31    23    32 1   
    32    25    33 1   
    33    26    33 1   
    34    27    33 1   
@<TRIPOS>SUBSTRUCTURE
     1 O2P         1 TEMP              0 ****  ****    0 ROOT
