@<TRIPOS>MOLECULE
O2P
   33    34     1     0     0
SMALL
No Charge or Current Charge


@<TRIPOS>ATOM
      1 N1          -0.1790     0.1880    -0.0120 ns         1 O2P      -0.147000
      2 C4          -2.1750    -1.1030     0.6690 ca         1 O2P      -0.110000
      3 C5          -1.5940     0.0210     0.0420 ca         1 O2P      -0.056000
      4 C6           0.8530    -0.7430    -0.0180 c          1 O2P       0.618700
      5 C7           2.2600    -0.1550     0.0730 ca         1 O2P      -0.158600
      6 C8           2.4350     1.1480     0.6110 ca         1 O2P      -0.085000
      7 C10          4.8400     1.0140     0.3050 ca         1 O2P      -0.085000
      8 C15         -3.8400     0.8880    -0.3920 ca         1 O2P      -0.102000
      9 C2          -4.4120    -0.2360     0.2300 ca         1 O2P      -0.085300
     10 C3          -3.5720    -1.2320     0.7570 ca         1 O2P      -0.096000
     11 O1           0.6400    -1.9490    -0.0690 o          1 O2P      -0.576100
     12 C9           3.7100     1.7230     0.7240 ca         1 O2P      -0.121000
     13 C11          4.6930    -0.2730    -0.2290 ca         1 O2P      -0.123000
     14 C12          3.4210    -0.8700    -0.3540 ca         1 O2P      -0.020300
     15 C14         -2.4450     1.0200    -0.4900 ca         1 O2P       0.051100
     16 O2          -1.9380     2.1210    -1.1260 oh         1 O2P      -0.566100
     17 H1           0.1290     1.1510     0.0090 hn         1 O2P       0.165000
     18 H2          -1.5550    -1.8770     1.1140 ha         1 O2P       0.143000
     19 H3           1.5890     1.7290     0.9720 ha         1 O2P       0.119000
     20 H4           5.8290     1.4590     0.3940 ha         1 O2P       0.116000
     21 H5           3.0750    -3.0180    -0.2400 hc         1 O2P       0.051700
     22 H6           2.6330    -2.2960    -1.8040 hc         1 O2P       0.051700
     23 H7           4.3240    -2.5660    -1.3990 hc         1 O2P       0.051700
     24 H8          -4.4820     1.6610    -0.8090 ha         1 O2P       0.123000
     25 H9          -6.3240    -0.9000    -0.5510 hc         1 O2P       0.042367
     26 H10         -6.2180    -0.9430     1.2170 hc         1 O2P       0.042367
     27 H11         -6.4140     0.6030     0.3830 hc         1 O2P       0.042367
     28 H12         -4.0000    -2.1050     1.2440 ha         1 O2P       0.116000
     29 H13          3.8210     2.7210     1.1450 ha         1 O2P       0.119000
     30 H14          5.5820    -0.8100    -0.5540 ha         1 O2P       0.116000
     31 H15         -1.0280     1.9250    -1.4340 ho         1 O2P       0.456000
     32 C13          3.3570    -2.2610    -0.9810 c3         1 O2P      -0.052800
     33 C1          -5.9240    -0.3760     0.3260 c3         1 O2P      -0.043800
@<TRIPOS>BOND
     1     1     3 1   
     2     1     4 1   
     3     1    17 1   
     4     2     3 ar  
     5     2    10 ar  
     6     2    18 1   
     7     3    15 ar  
     8     4     5 1   
     9     4    11 2   
    10     5     6 ar  
    11     5    14 ar  
    12     6    12 ar  
    13     6    19 1   
    14     7    12 ar  
    15     7    13 ar  
    16     7    20 1   
    17     8     9 ar  
    18     8    15 ar  
    19     8    24 1   
    20     9    10 ar  
    21     9    33 1   
    22    10    28 1   
    23    12    29 1   
    24    13    14 ar  
    25    13    30 1   
    26    14    32 1   
    27    15    16 1   
    28    16    31 1   
    29    21    32 1   
    30    22    32 1   
    31    23    32 1   
    32    25    33 1   
    33    26    33 1   
    34    27    33 1   
@<TRIPOS>SUBSTRUCTURE
     1 O2P         1 TEMP              0 ****  ****    0 ROOT
