@<TRIPOS>MOLECULE
O2Q
   34    36     1     0     0
SMALL
No Charge or Current Charge


@<TRIPOS>ATOM
      1 N1         -10.5440     6.8930     0.3950 na         1 O2Q       0.153000
      2 C4          -8.2050     5.8590     1.2740 cc         1 O2Q      -0.183000
      3 C5          -8.3030     7.0720     0.4870 cc         1 O2Q       0.587900
      4 C13         -7.1270     7.6410    -2.3410 ca         1 O2Q      -0.091300
      5 C15         -6.2560     5.9090    -3.8230 ca         1 O2Q       0.132000
      6 C17         -8.3970     6.9590    -4.3150 ca         1 O2Q      -0.129000
      7 C12         -6.9860     8.5000    -1.0870 c3         1 O2Q       0.286100
      8 C14         -6.1220     6.7090    -2.6760 ca         1 O2Q      -0.119000
      9 C16         -7.3930     6.0340    -4.6430 ca         1 O2Q       0.140000
     10 C18         -8.2650     7.7610    -3.1660 ca         1 O2Q      -0.078000
     11 C19         -5.9330     7.6780     1.0540 c3         1 O2Q       0.221100
     12 C2         -10.5400     5.7540     1.1310 cd         1 O2Q      -0.175000
     13 C3          -9.3410     5.1670     1.6180 cd         1 O2Q       0.004000
     14 C9         -11.8410     7.1870     0.0740 cd         1 O2Q       0.358800
     15 F20         -7.5270     5.2660    -5.7490 f          1 O2Q      -0.159000
     16 F21         -5.2850     5.0180    -4.1310 f          1 O2Q      -0.161000
     17 N11         -7.1210     7.7200     0.1680 nh         1 O2Q      -0.795300
     18 N6          -9.4280     7.6280     0.0270 nd         1 O2Q      -0.569800
     19 N7         -11.7850     5.3310     1.2820 nc         1 O2Q      -0.067000
     20 N8         -12.6150     6.2420     0.6090 nc         1 O2Q      -0.376700
     21 H23         -7.2370     5.4850     1.5780 ha         1 O2Q       0.134000
     22 H26        -13.4290     8.3320    -0.8390 hc         1 O2Q       0.059367
     23 H24        -12.0560     9.3010    -0.2710 hc         1 O2Q       0.059367
     24 H25        -11.9070     8.3310    -1.7480 hc         1 O2Q       0.059367
     25 H30         -9.2760     7.0520    -4.9480 ha         1 O2Q       0.137000
     26 H28         -6.0060     8.9960    -1.1280 h1         1 O2Q       0.064700
     27 H27         -7.7330     9.3060    -1.1110 h1         1 O2Q       0.064700
     28 H29         -5.2440     6.6020    -2.0450 ha         1 O2Q       0.131000
     29 H31         -9.0500     8.4700    -2.9140 ha         1 O2Q       0.124000
     30 H32         -6.2340     7.6040     2.1070 h1         1 O2Q       0.044033
     31 H33         -5.3020     6.8140     0.8080 h1         1 O2Q       0.044033
     32 H34         -5.3270     8.5880     0.9460 h1         1 O2Q       0.044033
     33 H22         -9.3220     4.2520     2.2020 ha         1 O2Q       0.150000
     34 C10        -12.3370     8.3510    -0.7410 c3         1 O2Q      -0.093400
@<TRIPOS>BOND
     1     1    12 1   
     2     1    14 1   
     3     1    18 1   
     4     2     3 1   
     5     2    13 2   
     6     2    21 1   
     7     3    17 1   
     8     3    18 2   
     9     4     7 1   
    10     4     8 ar  
    11     4    10 ar  
    12     5     8 ar  
    13     5     9 ar  
    14     5    16 1   
    15     6     9 ar  
    16     6    10 ar  
    17     6    25 1   
    18     7    17 1   
    19     7    26 1   
    20     7    27 1   
    21     8    28 1   
    22     9    15 1   
    23    10    29 1   
    24    11    17 1   
    25    11    30 1   
    26    11    31 1   
    27    11    32 1   
    28    12    13 1   
    29    12    19 2   
    30    13    33 1   
    31    14    20 2   
    32    14    34 1   
    33    19    20 1   
    34    22    34 1   
    35    23    34 1   
    36    24    34 1   
@<TRIPOS>SUBSTRUCTURE
     1 O2Q         1 TEMP              0 ****  ****    0 ROOT
