@<TRIPOS>MOLECULE
O2Q
   34    36     1     0     0
SMALL
abcg2


@<TRIPOS>ATOM
      1 N1         -10.4090     6.7570     0.3740 na         1 O2Q       0.153000
      2 C4          -8.2170     6.1170     1.7390 cc         1 O2Q      -0.183000
      3 C5          -8.2040     7.0300     0.6140 cc         1 O2Q       0.587900
      4 C13         -7.2960     7.7590    -2.2460 ca         1 O2Q      -0.091300
      5 C15         -6.7210     6.0010    -3.7690 ca         1 O2Q       0.132000
      6 C17         -8.4300     7.5660    -4.3730 ca         1 O2Q      -0.129000
      7 C12         -7.0840     8.4860    -0.9390 c3         1 O2Q       0.286100
      8 C14         -6.5290     6.6410    -2.5640 ca         1 O2Q      -0.119000
      9 C16         -7.6650     6.4590    -4.6730 ca         1 O2Q       0.140000
     10 C18         -8.2440     8.2070    -3.1550 ca         1 O2Q      -0.078000
     11 C19         -5.7900     7.3210     0.8730 c3         1 O2Q       0.221100
     12 C2         -10.5520     5.8950     1.4210 cd         1 O2Q      -0.175000
     13 C3          -9.3790     5.5590     2.1390 cd         1 O2Q       0.004000
     14 C9         -11.6460     6.9070    -0.1520 cd         1 O2Q       0.358800
     15 F20         -7.8280     5.8100    -5.8310 f          1 O2Q      -0.159000
     16 F21         -5.9930     4.9230    -4.0820 f          1 O2Q      -0.161000
     17 N11         -7.0480     7.6110     0.2150 nh         1 O2Q      -0.795300
     18 N6          -9.2850     7.3380    -0.0570 nd         1 O2Q      -0.569800
     19 N7         -11.8140     5.5430     1.5280 nc         1 O2Q      -0.067000
     20 N8         -12.4840     6.1770     0.5480 nc         1 O2Q      -0.376700
     21 H23         -7.3010     5.8800     2.2580 ha         1 O2Q       0.134000
     22 H26        -13.0080     7.7490    -1.5270 hc         1 O2Q       0.059367
     23 H24        -11.6200     8.7850    -1.1600 hc         1 O2Q       0.059367
     24 H25        -11.4170     7.3910    -2.2120 hc         1 O2Q       0.059367
     25 H30         -9.1720     7.9160    -5.0790 ha         1 O2Q       0.137000
     26 H28         -6.1360     9.0250    -0.9690 h1         1 O2Q       0.064700
     27 H27         -7.8680     9.2360    -0.8150 h1         1 O2Q       0.064700
     28 H29         -5.7800     6.2550    -1.8830 ha         1 O2Q       0.131000
     29 H31         -8.8570     9.0650    -2.9110 ha         1 O2Q       0.124000
     30 H32         -5.8230     7.5540     1.9380 h1         1 O2Q       0.044033
     31 H33         -5.4860     6.2780     0.7550 h1         1 O2Q       0.044033
     32 H34         -5.0160     7.9400     0.4290 h1         1 O2Q       0.044033
     33 H22         -9.4300     4.8760     2.9750 ha         1 O2Q       0.150000
     34 C10        -11.9390     7.7550    -1.3260 c3         1 O2Q      -0.093400
@<TRIPOS>BOND
     1     1    12 1   
     2     1    14 1   
     3     1    18 1   
     4     2     3 1   
     5     2    13 2   
     6     2    21 1   
     7     3    17 1   
     8     3    18 2   
     9     4     7 1   
    10     4     8 ar  
    11     4    10 ar  
    12     5     8 ar  
    13     5     9 ar  
    14     5    16 1   
    15     6     9 ar  
    16     6    10 ar  
    17     6    25 1   
    18     7    17 1   
    19     7    26 1   
    20     7    27 1   
    21     8    28 1   
    22     9    15 1   
    23    10    29 1   
    24    11    17 1   
    25    11    30 1   
    26    11    31 1   
    27    11    32 1   
    28    12    13 1   
    29    12    19 2   
    30    13    33 1   
    31    14    20 2   
    32    14    34 1   
    33    19    20 1   
    34    22    34 1   
    35    23    34 1   
    36    24    34 1   
@<TRIPOS>SUBSTRUCTURE
     1 O2Q         1 TEMP              0 ****  ****    0 ROOT
