@<TRIPOS>MOLECULE
O2R
   44    45     1     0     0
SMALL
abcg2


@<TRIPOS>ATOM
      1 N1           6.9870     1.5640    17.5660 nb         1 O2R      -0.648000
      2 C4          11.1210    -0.4860    23.1050 ca         1 O2R       0.158100
      3 C5          12.2380    -0.1090    23.8480 ca         1 O2R      -0.187000
      4 C6          13.4990    -0.5920    23.5060 ca         1 O2R      -0.057000
      5 C7          13.6290    -1.4440    22.4250 ca         1 O2R       0.088000
      6 C8          12.5210    -1.8270    21.6780 ca         1 O2R      -0.050000
      7 C10         10.0460    -1.7580    21.2240 c3         1 O2R      -0.092100
      8 C13          7.7220     0.7350    18.3080 ca         1 O2R       0.334900
      9 C15          5.2770     1.4440    19.2350 ca         1 O2R      -0.147000
     10 O1          10.1540     0.2570    19.9030 o          1 O2R      -0.570100
     11 C11          9.4570    -0.6080    20.4160 c          1 O2R       0.608100
     12 C12          7.2990     0.2280    19.5370 ca         1 O2R      -0.079000
     13 C16          6.0350     0.5860    20.0250 ca         1 O2R      -0.080300
     14 C14          5.7830     1.9110    18.0310 ca         1 O2R       0.316900
     15 C9          11.2590    -1.3570    22.0110 ca         1 O2R      -0.098300
     16 O            9.8580    -0.0620    23.3570 os         1 O2R      -0.361100
     17 C3           9.6190     0.7670    24.5050 c3         1 O2R       0.165600
     18 C2           8.1260     0.9730    24.6430 c3         1 O2R      -0.080400
     19 C1           7.3490    -0.3140    24.9190 c3         1 O2R      -0.074400
     20 C            5.8760    -0.0560    25.2220 c3         1 O2R      -0.092100
     21 H1          12.1450     0.5600    24.6890 ha         1 O2R       0.122000
     22 H2          14.3660    -0.2980    24.0820 ha         1 O2R       0.130000
     23 H3          12.6380    -2.4960    20.8360 ha         1 O2R       0.131000
     24 H4           9.2830    -2.1760    21.8830 hc         1 O2R       0.066700
     25 H5          10.3140    -2.5360    20.5050 hc         1 O2R       0.066700
     26 H6           8.6900     0.4540    17.9170 h4         1 O2R       0.041100
     27 H7           4.2940     1.7550    19.5660 ha         1 O2R       0.120000
     28 H8           5.3910    -1.0100    21.3200 hc         1 O2R       0.047033
     29 H9           6.2460     0.2890    22.1370 hc         1 O2R       0.047033
     30 H10          4.5780     0.5340    21.5930 hc         1 O2R       0.047033
     31 H11          7.6190    -1.3440    20.8420 hn         1 O2R       0.152000
     32 H12          5.1990     2.5850    17.4150 h4         1 O2R       0.021100
     33 H13         10.0210     0.2720    25.3940 h1         1 O2R       0.040700
     34 H14         10.1380     1.7200    24.3730 h1         1 O2R       0.040700
     35 H15          7.7410     1.4590    23.7410 hc         1 O2R       0.054700
     36 H16          7.9740     1.6770    25.4670 hc         1 O2R       0.054700
     37 H17          7.8120    -0.8330    25.7660 hc         1 O2R       0.041200
     38 H18          7.4400    -0.9830    24.0600 hc         1 O2R       0.041200
     39 H19          5.3360    -0.9900    25.3910 hc         1 O2R       0.033700
     40 H20          5.7640     0.5630    26.1160 hc         1 O2R       0.033700
     41 H21          5.3890     0.4660    24.3950 hc         1 O2R       0.033700
     42 C17          5.5320     0.0750    21.3410 c3         1 O2R      -0.052800
     43 N            8.1020    -0.6590    20.2800 ns         1 O2R      -0.156000
     44 CL          15.2150    -2.0540    21.9820 cl         1 O2R      -0.211000
@<TRIPOS>BOND
     1     1     8 ar  
     2     1    14 ar  
     3     2     3 ar  
     4     2    15 ar  
     5     2    16 1   
     6     3     4 ar  
     7     3    21 1   
     8     4     5 ar  
     9     4    22 1   
    10     5     6 ar  
    11     5    44 1   
    12     6    15 ar  
    13     6    23 1   
    14     7    11 1   
    15     7    15 1   
    16     7    24 1   
    17     7    25 1   
    18     8    12 ar  
    19     8    26 1   
    20     9    13 ar  
    21     9    14 ar  
    22     9    27 1   
    23    10    11 2   
    24    11    43 1   
    25    12    13 ar  
    26    12    43 1   
    27    13    42 1   
    28    14    32 1   
    29    16    17 1   
    30    17    18 1   
    31    17    33 1   
    32    17    34 1   
    33    18    19 1   
    34    18    35 1   
    35    18    36 1   
    36    19    20 1   
    37    19    37 1   
    38    19    38 1   
    39    20    39 1   
    40    20    40 1   
    41    20    41 1   
    42    28    42 1   
    43    29    42 1   
    44    30    42 1   
    45    31    43 1   
@<TRIPOS>SUBSTRUCTURE
     1 O2R         1 TEMP              0 ****  ****    0 ROOT
