@<TRIPOS>MOLECULE
O2R
   44    45     1     0     0
SMALL
No Charge or Current Charge


@<TRIPOS>ATOM
      1 N1           6.8100     2.4920    19.4340 nb         1 O2R      -0.648000
      2 C4          11.2400    -0.5970    22.9310 ca         1 O2R       0.158100
      3 C5          12.3570    -0.1760    23.6880 ca         1 O2R      -0.187000
      4 C6          13.6200    -0.7520    23.4670 ca         1 O2R      -0.057000
      5 C7          13.7750    -1.7470    22.4920 ca         1 O2R       0.088000
      6 C8          12.6710    -2.1720    21.7360 ca         1 O2R      -0.050000
      7 C10         10.2090    -2.0900    21.1080 c3         1 O2R      -0.092100
      8 C13          7.6720     1.5090    19.7890 ca         1 O2R       0.334900
      9 C15          4.9870     1.0690    20.1490 ca         1 O2R      -0.147000
     10 O1          10.0790    -0.3070    19.4760 o          1 O2R      -0.570100
     11 C11          9.5120    -0.9460    20.3550 c          1 O2R       0.608100
     12 C12          7.2580     0.2670    20.3320 ca         1 O2R      -0.079000
     13 C16          5.8760     0.0440    20.5220 ca         1 O2R      -0.080300
     14 C14          5.4910     2.2650    19.6130 ca         1 O2R       0.316900
     15 C9          11.3970    -1.6020    21.9460 ca         1 O2R      -0.098300
     16 O            9.9870    -0.0470    23.1190 os         1 O2R      -0.361100
     17 C3           9.7480     1.0370    24.0330 c3         1 O2R       0.165600
     18 C2           8.2700     1.4590    23.9040 c3         1 O2R      -0.080400
     19 C1           7.2620     0.3620    24.3170 c3         1 O2R      -0.074400
     20 C            5.7960     0.8280    24.2250 c3         1 O2R      -0.092100
     21 H1          12.2660     0.5910    24.4510 ha         1 O2R       0.122000
     22 H2          14.4780    -0.4270    24.0510 ha         1 O2R       0.130000
     23 H3          12.8100    -2.9460    20.9850 ha         1 O2R       0.131000
     24 H4           9.4890    -2.5980    21.7600 hc         1 O2R       0.066700
     25 H5          10.5510    -2.8130    20.3580 hc         1 O2R       0.066700
     26 H6           8.7260     1.7460    19.6520 h4         1 O2R       0.041100
     27 H7           3.9140     0.9480    20.2690 ha         1 O2R       0.120000
     28 H8           5.6210    -2.1150    20.4610 hc         1 O2R       0.047033
     29 H9           5.7400    -1.4510    22.1000 hc         1 O2R       0.047033
     30 H10          4.2490    -1.2570    21.1740 hc         1 O2R       0.047033
     31 H11          7.8370    -1.3830    21.4150 hn         1 O2R       0.152000
     32 H12          4.8160     3.0680    19.3190 h4         1 O2R       0.021100
     33 H13          9.9560     0.7300    25.0670 h1         1 O2R       0.040700
     34 H14         10.3860     1.8950    23.7870 h1         1 O2R       0.040700
     35 H15          8.0750     1.7670    22.8700 hc         1 O2R       0.054700
     36 H16          8.1090     2.3450    24.5310 hc         1 O2R       0.054700
     37 H17          7.4710     0.0440    25.3460 hc         1 O2R       0.041200
     38 H18          7.3970    -0.5190    23.6790 hc         1 O2R       0.041200
     39 H19          5.1170     0.0110    24.4940 hc         1 O2R       0.033700
     40 H20          5.6130     1.6660    24.9090 hc         1 O2R       0.033700
     41 H21          5.5540     1.1550    23.2070 hc         1 O2R       0.033700
     42 C17          5.3430    -1.2650    21.0960 c3         1 O2R      -0.052800
     43 N            8.1890    -0.7360    20.7220 ns         1 O2R      -0.156000
     44 Cl          15.3560    -2.4680    22.2170 cl         1 O2R      -0.211000
@<TRIPOS>BOND
     1     1     8 ar  
     2     1    14 ar  
     3     2     3 ar  
     4     2    15 ar  
     5     2    16 1   
     6     3     4 ar  
     7     3    21 1   
     8     4     5 ar  
     9     4    22 1   
    10     5     6 ar  
    11     5    44 1   
    12     6    15 ar  
    13     6    23 1   
    14     7    11 1   
    15     7    15 1   
    16     7    24 1   
    17     7    25 1   
    18     8    12 ar  
    19     8    26 1   
    20     9    13 ar  
    21     9    14 ar  
    22     9    27 1   
    23    10    11 2   
    24    11    43 1   
    25    12    13 ar  
    26    12    43 1   
    27    13    42 1   
    28    14    32 1   
    29    16    17 1   
    30    17    18 1   
    31    17    33 1   
    32    17    34 1   
    33    18    19 1   
    34    18    35 1   
    35    18    36 1   
    36    19    20 1   
    37    19    37 1   
    38    19    38 1   
    39    20    39 1   
    40    20    40 1   
    41    20    41 1   
    42    28    42 1   
    43    29    42 1   
    44    30    42 1   
    45    31    43 1   
@<TRIPOS>SUBSTRUCTURE
     1 O2R         1 TEMP              0 ****  ****    0 ROOT
