@<TRIPOS>MOLECULE
O2S
   26    25     1     0     0
SMALL
bcc


@<TRIPOS>ATOM
      1 O01         -0.0850     2.0130    -1.1450 o          1 O2S      -0.835800
      2 C02         -0.2180     1.3560    -0.0940 c          1 O2S       0.938600
      3 O03         -0.3820     1.8230     1.0530 o          1 O2S      -0.835800
      4 C04         -0.1380    -0.1810    -0.1940 c3         1 O2S      -0.194700
      5 C05          1.1440    -0.6780     0.4850 c3         1 O2S      -0.039400
      6 C06          2.4450    -0.0450    -0.0160 c3         1 O2S      -0.058700
      7 C07          3.6280    -0.6200     0.7560 c3         1 O2S      -0.082600
      8 C08          2.6380    -0.2400    -1.5160 c3         1 O2S      -0.082600
      9 C09         -1.3770    -0.8320     0.4260 c3         1 O2S       0.087400
     10 S10         -2.9080    -0.1740    -0.3450 sh         1 O2S      -0.437900
     11 C11         -1.3820    -2.3520     0.3680 c3         1 O2S      -0.090100
     12 H2          -0.1080    -0.4690    -1.2520 hc         1 O2S       0.030700
     13 H3           1.0590    -0.5070     1.5640 hc         1 O2S       0.016200
     14 H4           1.2340    -1.7620     0.3560 hc         1 O2S       0.016200
     15 H5           2.4080     1.0320     0.1830 hc         1 O2S       0.079700
     16 H6           3.7160    -1.6970     0.5910 hc         1 O2S       0.020700
     17 H7           4.5680    -0.1610     0.4430 hc         1 O2S       0.020700
     18 H8           3.5220    -0.4590     1.8310 hc         1 O2S       0.020700
     19 H9           1.8600     0.2640    -2.0890 hc         1 O2S       0.020700
     20 H10          3.6000     0.1620    -1.8410 hc         1 O2S       0.020700
     21 H11          2.6190    -1.3010    -1.7790 hc         1 O2S       0.020700
     22 H12         -1.4620    -0.5060     1.4650 h1         1 O2S       0.094700
     23 H13         -2.6720    -0.6330    -1.5810 hs         1 O2S       0.195800
     24 H14         -0.5500    -2.7740     0.9330 hc         1 O2S       0.024033
     25 H15         -2.3040    -2.7560     0.7860 hc         1 O2S       0.024033
     26 H16         -1.2980    -2.7040    -0.6630 hc         1 O2S       0.024033
@<TRIPOS>BOND
     1     1     2 1   
     2     2     3 1   
     3     2     4 1   
     4     4     5 1   
     5     4     9 1   
     6     4    12 1   
     7     5     6 1   
     8     5    13 1   
     9     5    14 1   
    10     6     7 1   
    11     6     8 1   
    12     6    15 1   
    13     7    16 1   
    14     7    17 1   
    15     7    18 1   
    16     8    19 1   
    17     8    20 1   
    18     8    21 1   
    19     9    10 1   
    20     9    11 1   
    21     9    22 1   
    22    10    23 1   
    23    11    24 1   
    24    11    25 1   
    25    11    26 1   
@<TRIPOS>SUBSTRUCTURE
     1 O2S         1 TEMP              0 ****  ****    0 ROOT
