@<TRIPOS>MOLECULE
O2S
   26    25     1     0     0
SMALL
No Charge or Current Charge


@<TRIPOS>ATOM
      1 O01         -0.2370     2.0350    -1.0650 o          1 O2S      -0.730500
      2 C02         -0.2430     1.3670    -0.0410 c          1 O2S       0.728000
      3 O03         -0.2670     1.8590     1.0790 o          1 O2S      -0.730500
      4 C04         -0.1640    -0.1720    -0.1680 c3         1 O2S      -0.194700
      5 C05          1.1570    -0.7180     0.4640 c3         1 O2S      -0.039400
      6 C06          2.4790    -0.0640    -0.0350 c3         1 O2S      -0.058700
      7 C07          3.6900    -0.5910     0.7680 c3         1 O2S      -0.082600
      8 C08          2.7080    -0.2570    -1.5540 c3         1 O2S      -0.082600
      9 C09         -1.4490    -0.8160     0.4300 c3         1 O2S       0.135300
     10 S10         -2.9840    -0.1800    -0.3940 sh         1 O2S      -0.485800
     11 C11         -1.4510    -2.3610     0.3890 c3         1 O2S      -0.090100
     12 H2          -0.1480    -0.4220    -1.2350 hc         1 O2S       0.030700
     13 H3           1.0960    -0.5980     1.5530 hc         1 O2S       0.016200
     14 H4           1.2320    -1.7950     0.2760 hc         1 O2S       0.016200
     15 H5           2.4230     1.0150     0.1550 hc         1 O2S       0.079700
     16 H6           3.8170    -1.6710     0.6210 hc         1 O2S       0.020700
     17 H7           4.6130    -0.0910     0.4510 hc         1 O2S       0.020700
     18 H8           3.5560    -0.4030     1.8400 hc         1 O2S       0.020700
     19 H9           1.9190     0.2290    -2.1400 hc         1 O2S       0.020700
     20 H10          3.6640     0.1840    -1.8600 hc         1 O2S       0.020700
     21 H11          2.7240    -1.3230    -1.8140 hc         1 O2S       0.020700
     22 H12         -1.5150    -0.5190     1.4860 h1         1 O2S       0.094700
     23 H13         -2.6880    -0.6540    -1.6290 hs         1 O2S       0.195800
     24 H14         -0.6760    -2.7790     1.0420 hc         1 O2S       0.024033
     25 H15         -2.4140    -2.7500     0.7390 hc         1 O2S       0.024033
     26 H16         -1.2850    -2.7260    -0.6320 hc         1 O2S       0.024033
@<TRIPOS>BOND
     1     1     2 1   
     2     2     3 1   
     3     2     4 1   
     4     4     5 1   
     5     4     9 1   
     6     4    12 1   
     7     5     6 1   
     8     5    13 1   
     9     5    14 1   
    10     6     7 1   
    11     6     8 1   
    12     6    15 1   
    13     7    16 1   
    14     7    17 1   
    15     7    18 1   
    16     8    19 1   
    17     8    20 1   
    18     8    21 1   
    19     9    10 1   
    20     9    11 1   
    21     9    22 1   
    22    10    23 1   
    23    11    24 1   
    24    11    25 1   
    25    11    26 1   
@<TRIPOS>SUBSTRUCTURE
     1 O2S         1 TEMP              0 ****  ****    0 ROOT
