@<TRIPOS>MOLECULE
O2U
   18    18     1     0     0
SMALL
No Charge or Current Charge


@<TRIPOS>ATOM
      1 CAC          9.0230   141.6580   101.9130 c          1 O2U       0.564000
      2 CAD          8.4280   142.3960   100.6860 c5         1 O2U      -0.104700
      3 CAE          6.8970   142.6760   100.7840 c3         1 O2U      -0.211400
      4 CAF          6.4000   143.4720    99.5660 c          1 O2U       0.721000
      5 CAI          8.9080   141.5000    99.4920 c5         1 O2U      -0.143400
      6 CAJ         10.2490   140.9370    99.9880 c          1 O2U       0.567000
      7 NAB         10.1130   140.9710   101.3750 n          1 O2U      -0.285900
      8 OAA         11.0900   140.3220   102.2380 oh         1 O2U      -0.411100
      9 OAG          6.0020   142.8510    98.5940 o          1 O2U      -0.730000
     10 OAH          6.4800   144.6900    99.6080 o          1 O2U      -0.730000
     11 OAK         11.2850   140.7080    99.3790 o          1 O2U      -0.524000
     12 OAL          8.6130   141.5680   103.0630 o          1 O2U      -0.511000
     13 HAD          8.9570   143.3540   100.6170 hc         1 O2U       0.095700
     14 HAF          6.7560   143.2740   101.6920 hc         1 O2U       0.039200
     15 HAE          6.3960   141.7000   100.8260 hc         1 O2U       0.039200
     16 HAJ          9.0100   141.9970    98.5220 hc         1 O2U       0.097700
     17 HAI          8.2220   140.6520    99.3910 hc         1 O2U       0.097700
     18 H1          11.7860   140.9990   102.3990 ho         1 O2U       0.430000
@<TRIPOS>BOND
     1     1     2 1   
     2     1     7 1   
     3     1    12 2   
     4     2     3 1   
     5     2     5 1   
     6     2    13 1   
     7     3     4 1   
     8     3    14 1   
     9     3    15 1   
    10     4     9 1   
    11     4    10 1   
    12     5     6 1   
    13     5    16 1   
    14     5    17 1   
    15     6     7 1   
    16     6    11 2   
    17     7     8 1   
    18     8    18 1   
@<TRIPOS>SUBSTRUCTURE
     1 O2U         1 TEMP              0 ****  ****    0 ROOT
