@<TRIPOS>MOLECULE
O2U
   18    18     1     0     0
SMALL
bcc


@<TRIPOS>ATOM
      1 CAC          9.0970   141.8630   101.9020 c          1 O2U       0.706500
      2 CAD          8.4680   142.5550   100.7180 c5         1 O2U      -0.104700
      3 CAE          6.9590   142.3480   100.6900 c3         1 O2U      -0.211400
      4 CAF          6.2410   143.1340    99.5710 c          1 O2U       0.931600
      5 CAI          9.2020   141.9870    99.4990 c5         1 O2U      -0.143400
      6 CAJ         10.2150   141.0150   100.0340 c          1 O2U       0.709500
      7 NAB         10.0840   141.0340   101.4080 n          1 O2U      -0.419900
      8 OAA         10.7900   140.2070   102.2040 oh         1 O2U      -0.372100
      9 OAG          5.0140   142.9380    99.4850 o          1 O2U      -0.835300
     10 OAH          6.9350   143.8920    98.8670 o          1 O2U      -0.835300
     11 OAK         11.0050   140.3310    99.4360 o          1 O2U      -0.599500
     12 OAL          8.8320   141.9750   103.0710 o          1 O2U      -0.586500
     13 HAD          8.6780   143.6220   100.8220 hc         1 O2U       0.095700
     14 HAF          6.5280   142.6430   101.6510 hc         1 O2U       0.039200
     15 HAE          6.7340   141.2820   100.5780 hc         1 O2U       0.039200
     16 HAJ          9.7110   142.7530    98.9150 hc         1 O2U       0.097700
     17 HAI          8.5340   141.4600    98.8160 hc         1 O2U       0.097700
     18 H1          11.5900   140.6860   102.4660 ho         1 O2U       0.391000
@<TRIPOS>BOND
     1     1     2 1   
     2     1     7 1   
     3     1    12 2   
     4     2     3 1   
     5     2     5 1   
     6     2    13 1   
     7     3     4 1   
     8     3    14 1   
     9     3    15 1   
    10     4     9 1   
    11     4    10 1   
    12     5     6 1   
    13     5    16 1   
    14     5    17 1   
    15     6     7 1   
    16     6    11 2   
    17     7     8 1   
    18     8    18 1   
@<TRIPOS>SUBSTRUCTURE
     1 O2U         1 TEMP              0 ****  ****    0 ROOT
