@<TRIPOS>MOLECULE
O2V
   26    25     1     0     0
SMALL
No Charge or Current Charge


@<TRIPOS>ATOM
      1 O01          0.3350     1.9670    -1.1150 o          1 O2V      -0.727500
      2 C02          0.2610     1.3350    -0.0710 c          1 O2V       0.722000
      3 O03          0.2350     1.8650     1.0310 o          1 O2V      -0.727500
      4 C04          0.1390    -0.2030    -0.1520 c3         1 O2V      -0.189700
      5 C05         -1.2340    -0.6870     0.4170 c3         1 O2V      -0.036400
      6 C06         -2.5020    -0.0110    -0.1830 c3         1 O2V      -0.059700
      7 C07         -2.6460    -0.2500    -1.7050 c3         1 O2V      -0.082600
      8 C08         -3.7750    -0.4730     0.5620 c3         1 O2V      -0.082600
      9 C09          1.3650    -0.8680     0.5410 c3         1 O2V       0.131300
     10 S10          2.9670    -0.2930    -0.1930 sh         1 O2V      -0.435800
     11 C11          1.3240    -2.4130     0.5360 c3         1 O2V      -0.092100
     12 H04          0.1780    -0.4870    -1.2100 hc         1 O2V       0.044700
     13 H051        -1.3320    -1.7680     0.2600 hc         1 O2V       0.015700
     14 H052        -1.2340    -0.5320     1.5030 hc         1 O2V       0.015700
     15 H09          1.3720    -0.5470     1.5920 h1         1 O2V       0.076700
     16 H06         -2.4220     1.0720    -0.0250 hc         1 O2V       0.079700
     17 H071        -3.5680     0.2100    -2.0830 hc         1 O2V       0.020867
     18 H072        -1.8090     0.1920    -2.2580 hc         1 O2V       0.020867
     19 H073        -2.6810    -1.3220    -1.9310 hc         1 O2V       0.020867
     20 H081        -3.7000    -0.2530     1.6340 hc         1 O2V       0.020867
     21 H082        -4.6610     0.0430     0.1740 hc         1 O2V       0.020867
     22 H083        -3.9270    -1.5530     0.4430 hc         1 O2V       0.020867
     23 H111         0.4970    -2.7930     1.1460 hc         1 O2V       0.023700
     24 H112         1.2150    -2.7970    -0.4850 hc         1 O2V       0.023700
     25 H113         2.2510    -2.8200     0.9580 hc         1 O2V       0.023700
     26 H10          3.7690    -0.9880     0.6480 hs         1 O2V       0.151800
@<TRIPOS>BOND
     1     1     2 1   
     2     2     3 1   
     3     2     4 1   
     4     4     5 1   
     5     4     9 1   
     6     4    12 1   
     7     5     6 1   
     8     5    13 1   
     9     5    14 1   
    10     6     7 1   
    11     6     8 1   
    12     6    16 1   
    13     7    17 1   
    14     7    18 1   
    15     7    19 1   
    16     8    20 1   
    17     8    21 1   
    18     8    22 1   
    19     9    10 1   
    20     9    11 1   
    21     9    15 1   
    22    10    26 1   
    23    11    23 1   
    24    11    24 1   
    25    11    25 1   
@<TRIPOS>SUBSTRUCTURE
     1 O2V         1 TEMP              0 ****  ****    0 ROOT
