@<TRIPOS>MOLECULE
O2V
   26    25     1     0     0
SMALL
bcc


@<TRIPOS>ATOM
      1 O01          0.3540     1.9110    -1.2130 o          1 O2V      -0.832800
      2 C02          0.2390     1.3120    -0.1250 c          1 O2V       0.932600
      3 O03          0.2090     1.8340     1.0080 o          1 O2V      -0.832800
      4 C04          0.1140    -0.2270    -0.1690 c3         1 O2V      -0.189700
      5 C05         -1.2210    -0.6720     0.4360 c3         1 O2V      -0.036400
      6 C06         -2.4620     0.0020    -0.1530 c3         1 O2V      -0.059700
      7 C07         -2.5700    -0.2080    -1.6600 c3         1 O2V      -0.082600
      8 C08         -3.7140    -0.5090     0.5520 c3         1 O2V      -0.082600
      9 C09          1.2890    -0.8780     0.5690 c3         1 O2V       0.083400
     10 S10          2.8290    -0.2600    -0.2270 sh         1 O2V      -0.387900
     11 C11          1.2670    -2.3980     0.5470 c3         1 O2V      -0.092100
     12 H04          0.1590    -0.5570    -1.2130 hc         1 O2V       0.044700
     13 H051        -1.3370    -1.7540     0.3130 hc         1 O2V       0.015700
     14 H052        -1.1990    -0.4890     1.5160 hc         1 O2V       0.015700
     15 H09          1.2920    -0.5230     1.6010 h1         1 O2V       0.076700
     16 H06         -2.3900     1.0790     0.0350 hc         1 O2V       0.079700
     17 H071        -3.4830     0.2450    -2.0530 hc         1 O2V       0.020867
     18 H072        -1.7260     0.2350    -2.1890 hc         1 O2V       0.020867
     19 H073        -2.6000    -1.2740    -1.9050 hc         1 O2V       0.020867
     20 H081        -3.6650    -0.3350     1.6290 hc         1 O2V       0.020867
     21 H082        -4.6120    -0.0150     0.1750 hc         1 O2V       0.020867
     22 H083        -3.8380    -1.5840     0.3970 hc         1 O2V       0.020867
     23 H111         0.4030    -2.7860     1.0880 hc         1 O2V       0.023700
     24 H112         1.2240    -2.7730    -0.4770 hc         1 O2V       0.023700
     25 H113         2.1570    -2.8130     1.0220 hc         1 O2V       0.023700
     26 H10          3.6970    -0.9350     0.5350 hs         1 O2V       0.151800
@<TRIPOS>BOND
     1     1     2 1   
     2     2     3 1   
     3     2     4 1   
     4     4     5 1   
     5     4     9 1   
     6     4    12 1   
     7     5     6 1   
     8     5    13 1   
     9     5    14 1   
    10     6     7 1   
    11     6     8 1   
    12     6    16 1   
    13     7    17 1   
    14     7    18 1   
    15     7    19 1   
    16     8    20 1   
    17     8    21 1   
    18     8    22 1   
    19     9    10 1   
    20     9    11 1   
    21     9    15 1   
    22    10    26 1   
    23    11    23 1   
    24    11    24 1   
    25    11    25 1   
@<TRIPOS>SUBSTRUCTURE
     1 O2V         1 TEMP              0 ****  ****    0 ROOT
