@<TRIPOS>MOLECULE
O2W
   52    55     1     0     0
SMALL
abcg2


@<TRIPOS>ATOM
      1 CAA         -7.6190     2.8190     0.4940 c3         1 O2W       0.154900
      2 NAB          6.0970     3.9550    -0.5650 nv         1 O2W      -1.083000
      3 OAC         -5.0890     2.2590     1.1950 o          1 O2W      -0.454000
      4 OAD         -3.3140    -1.4310    -1.2620 o          1 O2W      -0.547000
      5 CAG          1.0690    -2.4830    -1.7470 c6         1 O2W      -0.073400
      6 CAH         -0.1170    -1.5180    -1.5240 c6         1 O2W      -0.092900
      7 CAI          4.4390     2.3890    -1.3510 ca         1 O2W      -0.181000
      8 CAJ          4.9970     2.4750     0.9880 ca         1 O2W      -0.181000
      9 CAK          3.5580     1.3550    -1.0980 ca         1 O2W      -0.044500
     10 CAL          4.1120     1.4420     1.2340 ca         1 O2W      -0.044500
     11 CAM          0.0680    -4.0770    -0.1250 c6         1 O2W      -0.073400
     12 CAN         -4.9480     0.4840    -0.4330 c3         1 O2W       0.118600
     13 CAO         -1.0850    -3.0970     0.1780 c6         1 O2W      -0.092900
     14 NAP         -1.7120    -0.7030     0.2020 ns         1 O2W      -0.498900
     15 OAQ         -6.8400     1.7870    -0.1160 os         1 O2W      -0.448100
     16 OAR         -3.6440     0.3420     0.0820 os         1 O2W      -0.438100
     17 CAS         -5.6050     1.6140     0.3230 c          1 O2W       0.586100
     18 CAT         -2.9100    -0.6730    -0.4050 c          1 O2W       0.646100
     19 CAU          2.8680    -1.5240     0.4310 c          1 O2W       0.574000
     20 CAV          1.1500    -0.0080     0.7180 c          1 O2W       0.572000
     21 CAW          5.1810     2.9690    -0.3120 ca         1 O2W       0.314000
     22 CAX          3.3900     0.8750     0.1930 ca         1 O2W      -0.106000
     23 CAY          1.3310    -3.3010    -0.4840 c6         1 O2W      -0.050700
     24 CAZ          1.6470    -2.3690     0.6890 c5         1 O2W      -0.142700
     25 CBA          0.5060    -1.3650     0.8990 c5         1 O2W      -0.165700
     26 NBB          2.4890    -0.1930     0.4400 n          1 O2W      -0.204000
     27 CBC         -0.6460    -1.6490    -0.0890 c6         1 O2W       0.175400
     28 HAA         -8.5870     2.7890     0.0030 h1         1 O2W       0.051033
     29 HAAA        -7.7470     2.6400     1.5610 h1         1 O2W       0.051033
     30 HAAB        -7.1660     3.7980     0.3420 h1         1 O2W       0.051033
     31 HNAB         5.9990     4.4540    -1.4340 hn         1 O2W       0.457500
     32 HNAA         6.3430     4.5560     0.2040 hn         1 O2W       0.457500
     33 HAG          0.8530    -3.1680    -2.5690 hc         1 O2W       0.050700
     34 HAGA         1.9660    -1.9370    -2.0510 hc         1 O2W       0.050700
     35 HAH          0.1750    -0.4820    -1.7130 hc         1 O2W       0.063700
     36 HAHA        -0.9230    -1.7360    -2.2230 hc         1 O2W       0.063700
     37 HAJ          5.5590     2.9040     1.8090 ha         1 O2W       0.115500
     38 HAK          2.9950     0.9200    -1.9150 ha         1 O2W       0.117500
     39 HAL          3.9840     1.0740     2.2440 ha         1 O2W       0.117500
     40 HAM          0.2550    -4.7230     0.7350 hc         1 O2W       0.050700
     41 HAMA        -0.1920    -4.7350    -0.9560 hc         1 O2W       0.050700
     42 HAN         -4.9410     0.7200    -1.5010 h1         1 O2W       0.078700
     43 HANA        -5.5410    -0.4260    -0.3020 h1         1 O2W       0.078700
     44 HAO         -1.9550    -3.3350    -0.4320 hc         1 O2W       0.063700
     45 HAOA        -1.3990    -3.1750     1.2210 hc         1 O2W       0.063700
     46 HNAP        -1.5030     0.0550     0.8340 hn         1 O2W       0.350500
     47 HAY          2.1650    -3.9870    -0.6410 hc         1 O2W       0.076700
     48 HAZ          1.8270    -2.9620     1.5880 hc         1 O2W       0.091700
     49 HBA          0.1150    -1.4130     1.9210 hc         1 O2W       0.093700
     50 OAE          3.9940    -1.9030     0.2320 o          1 O2W      -0.485000
     51 OAF          0.6220     1.0740     0.8050 o          1 O2W      -0.497000
     52 HAI          4.5580     2.7550    -2.3640 ha         1 O2W       0.115500
@<TRIPOS>BOND
     1     1    15 1   
     2     1    28 1   
     3     1    29 1   
     4     1    30 1   
     5     2    21 1   
     6     2    31 1   
     7     2    32 1   
     8     3    17 2   
     9     4    18 2   
    10     5     6 1   
    11     5    23 1   
    12     5    33 1   
    13     5    34 1   
    14     6    27 1   
    15     6    35 1   
    16     6    36 1   
    17     7     9 ar  
    18     7    21 ar  
    19     7    52 1   
    20     8    10 ar  
    21     8    21 ar  
    22     8    37 1   
    23     9    22 ar  
    24     9    38 1   
    25    10    22 ar  
    26    10    39 1   
    27    11    13 1   
    28    11    23 1   
    29    11    40 1   
    30    11    41 1   
    31    12    16 1   
    32    12    17 1   
    33    12    42 1   
    34    12    43 1   
    35    13    27 1   
    36    13    44 1   
    37    13    45 1   
    38    14    18 1   
    39    14    27 1   
    40    14    46 1   
    41    15    17 1   
    42    16    18 1   
    43    19    24 1   
    44    19    26 1   
    45    19    50 2   
    46    20    25 1   
    47    20    26 1   
    48    20    51 2   
    49    22    26 1   
    50    23    24 1   
    51    23    47 1   
    52    24    25 1   
    53    24    48 1   
    54    25    27 1   
    55    25    49 1   
@<TRIPOS>SUBSTRUCTURE
     1 O2W         1 TEMP              0 ****  ****    0 ROOT
