@<TRIPOS>MOLECULE
O2W
   52    55     1     0     0
SMALL
No Charge or Current Charge


@<TRIPOS>ATOM
      1 CAA         -7.6290     3.0950     0.1990 c3         1 O2W       0.154900
      2 NAB          5.8250     4.2300    -0.5210 nv         1 O2W      -1.083000
      3 OAC         -5.0710     2.5080     1.0220 o          1 O2W      -0.454000
      4 OAD         -3.3360    -1.5560    -1.2590 o          1 O2W      -0.547000
      5 CAG          1.1010    -2.7470    -1.7250 c6         1 O2W      -0.073400
      6 CAH         -0.0440    -1.7040    -1.5150 c6         1 O2W      -0.092900
      7 CAI          3.7560     3.0730    -0.8860 ca         1 O2W      -0.181000
      8 CAJ          5.4570     2.1180     0.5540 ca         1 O2W      -0.181000
      9 CAK          2.9260     1.9640    -0.6460 ca         1 O2W      -0.044500
     10 CAL          4.6320     1.0060     0.7970 ca         1 O2W      -0.044500
     11 CAM          0.1270    -4.2420     0.0600 c6         1 O2W      -0.073400
     12 CAN         -4.9410     0.5370    -0.4400 c3         1 O2W       0.118600
     13 CAO         -1.0630    -3.2410     0.2330 c6         1 O2W      -0.092900
     14 NAP         -1.6800    -0.7920     0.1540 ns         1 O2W      -0.498900
     15 OAQ         -6.8750     1.9710    -0.2950 os         1 O2W      -0.448100
     16 OAR         -3.5950     0.3090     0.0550 os         1 O2W      -0.438100
     17 CAS         -5.6040     1.7800     0.1920 c          1 O2W       0.586100
     18 CAT         -2.9140    -0.7630    -0.4330 c          1 O2W       0.646100
     19 CAU          2.9650    -1.5370     0.3610 c          1 O2W       0.574000
     20 CAV          1.1620    -0.0590     0.8170 c          1 O2W       0.572000
     21 CAW          5.0200     3.1500    -0.2870 ca         1 O2W       0.314000
     22 CAX          3.3580     0.9190     0.1960 ca         1 O2W      -0.106000
     23 CAY          1.4150    -3.4910    -0.3910 c6         1 O2W      -0.050700
     24 CAZ          1.7700    -2.4440     0.7090 c5         1 O2W      -0.142700
     25 CBA          0.5640    -1.4690     0.9360 c5         1 O2W      -0.165700
     26 NBB          2.4990    -0.2190     0.4390 n          1 O2W      -0.204000
     27 CBC         -0.6080    -1.7730    -0.0580 c6         1 O2W       0.175400
     28 HAA         -8.6200     3.1260    -0.2710 h1         1 O2W       0.051033
     29 HAAA        -7.7710     3.0250     1.2850 h1         1 O2W       0.051033
     30 HAAB        -7.1170     4.0400    -0.0250 h1         1 O2W       0.051033
     31 HNAB         5.4470     5.0460    -0.9990 hn         1 O2W       0.457500
     32 HNAA         6.6690     4.3620     0.0340 hn         1 O2W       0.457500
     33 HAG          0.8040    -3.4750    -2.4930 hc         1 O2W       0.050700
     34 HAGA         2.0000    -2.2500    -2.1150 hc         1 O2W       0.050700
     35 HAH          0.3210    -0.6930    -1.7410 hc         1 O2W       0.063700
     36 HAHA        -0.8450    -1.9000    -2.2400 hc         1 O2W       0.063700
     37 HAJ          6.4350     2.1730     1.0230 ha         1 O2W       0.115500
     38 HAK          1.9500     1.9170    -1.1250 ha         1 O2W       0.117500
     39 HAL          4.9830     0.2200     1.4620 ha         1 O2W       0.117500
     40 HAM          0.3120    -4.7730     1.0050 hc         1 O2W       0.050700
     41 HAMA        -0.1360    -5.0140    -0.6770 hc         1 O2W       0.050700
     42 HAN         -4.9390     0.6870    -1.5260 h1         1 O2W       0.078700
     43 HANA        -5.5890    -0.3220    -0.2220 h1         1 O2W       0.078700
     44 HAO         -1.8750    -3.5340    -0.4440 hc         1 O2W       0.063700
     45 HAOA        -1.4720    -3.3180     1.2500 hc         1 O2W       0.063700
     46 HNAP        -1.5120    -0.0330     0.8010 hn         1 O2W       0.350500
     47 HAY          2.2440    -4.2000    -0.5330 hc         1 O2W       0.076700
     48 HAZ          2.0360    -3.0170     1.6050 hc         1 O2W       0.091700
     49 HBA          0.1290    -1.5560     1.9390 hc         1 O2W       0.093700
     50 OAE          4.1130    -1.8800     0.1100 o          1 O2W      -0.485000
     51 OAF          0.6310     1.0020     1.1210 o          1 O2W      -0.497000
     52 HAI          3.4130     3.8690    -1.5400 ha         1 O2W       0.115500
@<TRIPOS>BOND
     1     1    15 1   
     2     1    28 1   
     3     1    29 1   
     4     1    30 1   
     5     2    21 1   
     6     2    31 1   
     7     2    32 1   
     8     3    17 2   
     9     4    18 2   
    10     5     6 1   
    11     5    23 1   
    12     5    33 1   
    13     5    34 1   
    14     6    27 1   
    15     6    35 1   
    16     6    36 1   
    17     7     9 ar  
    18     7    21 ar  
    19     7    52 1   
    20     8    10 ar  
    21     8    21 ar  
    22     8    37 1   
    23     9    22 ar  
    24     9    38 1   
    25    10    22 ar  
    26    10    39 1   
    27    11    13 1   
    28    11    23 1   
    29    11    40 1   
    30    11    41 1   
    31    12    16 1   
    32    12    17 1   
    33    12    42 1   
    34    12    43 1   
    35    13    27 1   
    36    13    44 1   
    37    13    45 1   
    38    14    18 1   
    39    14    27 1   
    40    14    46 1   
    41    15    17 1   
    42    16    18 1   
    43    19    24 1   
    44    19    26 1   
    45    19    50 2   
    46    20    25 1   
    47    20    26 1   
    48    20    51 2   
    49    22    26 1   
    50    23    24 1   
    51    23    47 1   
    52    24    25 1   
    53    24    48 1   
    54    25    27 1   
    55    25    49 1   
@<TRIPOS>SUBSTRUCTURE
     1 O2W         1 TEMP              0 ****  ****    0 ROOT
