@<TRIPOS>MOLECULE
O2Y
   19    19     1     0     0
SMALL
No Charge or Current Charge


@<TRIPOS>ATOM
      1 O14         -4.1490    -0.5080     0.9410 o          1 O2Y      -0.735500
      2 C12         -3.6210    -0.1450    -0.1000 c          1 O2Y       0.735000
      3 O13         -4.0890    -0.3630    -1.2080 o          1 O2Y      -0.735500
      4 C11         -2.3080     0.6400    -0.0110 c3         1 O2Y      -0.160400
      5 S10         -0.8580    -0.5030    -0.0640 ss         1 O2Y       0.041000
      6 C6           0.6090     0.5450     0.0250 ca         1 O2Y      -0.129000
      7 C5           0.5010     1.9480     0.1450 ca         1 O2Y      -0.146000
      8 C4           1.6740     2.7140     0.1690 ca         1 O2Y      -0.190000
      9 C3           2.9160     2.0720     0.0670 ca         1 O2Y       0.261900
     10 N2           3.0420     0.7350    -0.0450 nb         1 O2Y      -0.649000
     11 C1           1.9090    -0.0390    -0.0560 ca         1 O2Y       0.285500
     12 C7           2.0800    -1.5730    -0.1880 c          1 O2Y       0.611500
     13 O8           1.6390    -2.3010     0.6970 o          1 O2Y      -0.701500
     14 O9           2.7120    -2.0180    -1.1430 o          1 O2Y      -0.701500
     15 H2          -2.2510     1.3400    -0.8530 h1         1 O2Y       0.032700
     16 H3          -2.2930     1.2050     0.9300 h1         1 O2Y       0.032700
     17 H4          -0.4600     2.4490     0.2130 ha         1 O2Y       0.104000
     18 H5           1.6260     3.7950     0.2580 ha         1 O2Y       0.074000
     19 H6           3.8410     2.6450     0.0770 h4         1 O2Y      -0.028900
@<TRIPOS>BOND
     1     1     2 1   
     2     2     3 1   
     3     2     4 1   
     4     4     5 1   
     5     4    15 1   
     6     4    16 1   
     7     5     6 1   
     8     6     7 ar  
     9     6    11 ar  
    10     7     8 ar  
    11     7    17 1   
    12     8     9 ar  
    13     8    18 1   
    14     9    10 ar  
    15     9    19 1   
    16    10    11 ar  
    17    11    12 1   
    18    12    13 1   
    19    12    14 1   
@<TRIPOS>SUBSTRUCTURE
     1 O2Y         1 TEMP              0 ****  ****    0 ROOT
