@<TRIPOS>MOLECULE
O30
   61    64     1     0     0
SMALL
abcg2


@<TRIPOS>ATOM
      1 F1           4.8470    -1.3190    18.5260 f          1 O30      -0.108333
      2 C2           4.3360    -2.5500    18.3450 c3         1 O30       0.279700
      3 F3           5.3150    -3.3100    17.7900 f          1 O30      -0.108333
      4 F4           4.1220    -3.0720    19.5790 f          1 O30      -0.108333
      5 C5           3.0980    -2.5430    17.5160 cc         1 O30       0.162300
      6 N6           2.6050    -1.3920    17.0620 nd         1 O30      -0.465800
      7 N7           1.5160    -1.7450    16.3550 na         1 O30       0.141800
      8 C8           1.3040    -3.0880    16.3670 cd         1 O30      -0.114300
      9 C9           2.3240    -3.6490    17.1100 cc         1 O30      -0.146300
     10 C10          2.4520    -5.1240    17.3340 c6         1 O30       0.003900
     11 C11          1.1270    -5.8210    16.9870 c6         1 O30      -0.076400
     12 C12          0.5480    -5.3230    15.6570 c6         1 O30      -0.070400
     13 C13          0.1890    -3.8290    15.7150 c6         1 O30      -0.013100
     14 C14          0.6800    -0.7180    15.7890 c3         1 O30       0.012600
     15 C15         -0.3300    -0.1920    16.8060 c          1 O30       0.582100
     16 O16         -0.7140    -0.8610    17.7560 o          1 O30      -0.566100
     17 N17         -0.7820     1.0530    16.5340 ns         1 O30      -0.382100
     18 C18         -1.7330     1.7530    17.2520 cc         1 O30      -0.003400
     19 S19         -2.6080     1.0710    18.5770 ss         1 O30       0.287000
     20 C20         -3.5000     2.5460    18.7940 cc         1 O30      -0.240300
     21 C21         -3.1300     3.5140    17.9070 cd         1 O30      -0.054300
     22 C22         -2.0900     3.0680    17.0070 cd         1 O30      -0.247600
     23 C23         -3.8150     4.8590    17.9090 c6         1 O30      -0.017100
     24 C24         -5.1210     4.8340    18.7090 c6         1 O30      -0.072400
     25 C25         -4.9370     4.1340    20.0550 c6         1 O30      -0.071400
     26 C26         -4.5590     2.6650    19.8490 c6         1 O30       0.000900
     27 C27         -1.4030     3.8340    15.9420 c          1 O30       0.643700
     28 O28         -0.7660     3.2610    15.0350 o          1 O30      -0.670100
     29 N29         -1.4700     5.1750    15.9860 ns         1 O30      -0.489900
     30 C30         -0.8120     6.0290    15.0080 c3         1 O30       0.102000
     31 C31         -1.2180     7.4810    15.2200 c3         1 O30      -0.093400
     32 C32         -0.5100     8.4410    14.2710 c3         1 O30       0.157800
     33 N33         -0.8790     8.1990    12.8680 n8         1 O30      -1.005200
     34 H10          3.2550    -5.5260    16.7070 hc         1 O30       0.056700
     35 H10A         2.7310    -5.3370    18.3680 hc         1 O30       0.056700
     36 H11          1.2840    -6.9010    16.9440 hc         1 O30       0.047700
     37 H11A         0.4020    -5.6330    17.7850 hc         1 O30       0.047700
     38 H12          1.2840    -5.4840    14.8630 hc         1 O30       0.046700
     39 H12A        -0.3410    -5.8970    15.3940 hc         1 O30       0.046700
     40 H13         -0.7310    -3.6850    16.2910 hc         1 O30       0.058700
     41 H13A        -0.0040    -3.4420    14.7120 hc         1 O30       0.058700
     42 H14          1.3140     0.0850    15.4160 h1         1 O30       0.093200
     43 H14A         0.1280    -1.1350    14.9450 h1         1 O30       0.093200
     44 HN17        -0.4360     1.5830    15.7300 hn         1 O30       0.378500
     45 H23         -3.1500     5.6140    18.3480 hc         1 O30       0.047700
     46 H23A        -4.0190     5.1800    16.8850 hc         1 O30       0.047700
     47 H24         -5.4750     5.8560    18.8530 hc         1 O30       0.045700
     48 H24A        -5.8870     4.3060    18.1320 hc         1 O30       0.045700
     49 H25         -4.1470     4.6390    20.6190 hc         1 O30       0.045200
     50 H25A        -5.8510     4.1980    20.6490 hc         1 O30       0.045200
     51 H26         -5.4460     2.0960    19.5470 hc         1 O30       0.052200
     52 H26A        -4.2150     2.2230    20.7870 hc         1 O30       0.052200
     53 HN29        -1.8850     5.6180    16.7880 hn         1 O30       0.320500
     54 H30          0.2750     5.9260    15.0940 h1         1 O30       0.054200
     55 H30A        -1.0900     5.6850    14.0110 h1         1 O30       0.054200
     56 H31         -2.3010     7.5770    15.0940 hc         1 O30       0.050700
     57 H31A        -0.9810     7.7690    16.2490 hc         1 O30       0.050700
     58 H32         -0.8100     9.4600    14.5210 h1         1 O30       0.031700
     59 H32A         0.5740     8.3770    14.4420 h1         1 O30       0.031700
     60 HN33        -0.5170     8.9500    12.2900 hn         1 O30       0.397000
     61 HN3A        -0.4360     7.3520    12.5290 hn         1 O30       0.397000
@<TRIPOS>BOND
     1     1     2 1   
     2     2     3 1   
     3     2     4 1   
     4     2     5 1   
     5     5     6 2   
     6     5     9 1   
     7     6     7 1   
     8     7     8 1   
     9     7    14 1   
    10     8     9 2   
    11     8    13 1   
    12     9    10 1   
    13    10    11 1   
    14    10    34 1   
    15    10    35 1   
    16    11    12 1   
    17    11    36 1   
    18    11    37 1   
    19    12    13 1   
    20    12    38 1   
    21    12    39 1   
    22    13    40 1   
    23    13    41 1   
    24    14    15 1   
    25    14    42 1   
    26    14    43 1   
    27    15    16 2   
    28    15    17 1   
    29    17    18 1   
    30    17    44 1   
    31    18    19 1   
    32    18    22 2   
    33    19    20 1   
    34    20    21 2   
    35    20    26 1   
    36    21    22 1   
    37    21    23 1   
    38    22    27 1   
    39    23    24 1   
    40    23    45 1   
    41    23    46 1   
    42    24    25 1   
    43    24    47 1   
    44    24    48 1   
    45    25    26 1   
    46    25    49 1   
    47    25    50 1   
    48    26    51 1   
    49    26    52 1   
    50    27    28 2   
    51    27    29 1   
    52    29    30 1   
    53    29    53 1   
    54    30    31 1   
    55    30    54 1   
    56    30    55 1   
    57    31    32 1   
    58    31    56 1   
    59    31    57 1   
    60    32    33 1   
    61    32    58 1   
    62    32    59 1   
    63    33    60 1   
    64    33    61 1   
@<TRIPOS>SUBSTRUCTURE
     1 O30         1 TEMP              0 ****  ****    0 ROOT
