@<TRIPOS>MOLECULE
O30
   61    64     1     0     0
SMALL
No Charge or Current Charge


@<TRIPOS>ATOM
      1 F1           4.2940    -4.8320    18.8850 f          1 O30      -0.108333
      2 C2           3.3860    -4.7320    17.8850 c3         1 O30       0.279700
      3 F3           3.9950    -5.1690    16.7590 f          1 O30      -0.108333
      4 F4           2.3940    -5.6070    18.1690 f          1 O30      -0.108333
      5 C5           2.8520    -3.3130    17.7250 cc         1 O30       0.162300
      6 N6           3.1560    -2.3070    18.5330 nd         1 O30      -0.465800
      7 N7           2.4450    -1.2400    17.9960 na         1 O30       0.141800
      8 C8           1.7220    -1.6020    16.8550 cd         1 O30      -0.114300
      9 C9           1.9740    -2.9240    16.6910 cc         1 O30      -0.146300
     10 C10          1.4180    -3.7850    15.5790 c6         1 O30       0.003900
     11 C11          0.2340    -3.0520    14.8880 c6         1 O30      -0.076400
     12 C12          0.5520    -1.5520    14.6280 c6         1 O30      -0.070400
     13 C13          0.8260    -0.7840    15.9510 c6         1 O30      -0.013100
     14 C14          2.5120     0.0910    18.6140 c3         1 O30       0.012600
     15 C15          1.1910     0.4830    19.2750 c          1 O30       0.582100
     16 O16          0.8450     0.0240    20.3560 o          1 O30      -0.566100
     17 N17          0.4240     1.3820    18.5560 ns         1 O30      -0.382100
     18 C18         -0.8480     1.8810    18.8270 cc         1 O30      -0.003400
     19 S19         -1.8170     1.4970    20.2500 ss         1 O30       0.287000
     20 C20         -3.1050     2.5370    19.6860 cc         1 O30      -0.240300
     21 C21         -2.8100     3.1150    18.4680 cd         1 O30      -0.054300
     22 C22         -1.4920     2.7660    17.9680 cd         1 O30      -0.247600
     23 C23         -3.8210     4.0310    17.7770 c6         1 O30      -0.017100
     24 C24         -5.2300     3.9800    18.4180 c6         1 O30      -0.072400
     25 C25         -5.1450     3.9890    19.9580 c6         1 O30      -0.071400
     26 C26         -4.3900     2.7390    20.4580 c6         1 O30       0.000900
     27 C27         -0.8080     3.2410    16.7060 c          1 O30       0.643700
     28 O28          0.2860     2.8420    16.3230 o          1 O30      -0.670100
     29 N29         -1.4830     4.1930    15.9900 ns         1 O30      -0.489900
     30 C30         -1.0060     4.7910    14.7440 c3         1 O30       0.102000
     31 C31         -1.9800     5.8690    14.2250 c3         1 O30      -0.093400
     32 C32         -1.4980     6.5890    12.9480 c3         1 O30       0.157800
     33 N33         -1.4370     5.6850    11.7830 n8         1 O30      -1.005200
     34 H10          2.2020    -3.9920    14.8380 hc         1 O30       0.056700
     35 H10A         1.0770    -4.7600    15.9530 hc         1 O30       0.056700
     36 H11         -0.0120    -3.5550    13.9430 hc         1 O30       0.047700
     37 H11A        -0.6610    -3.1270    15.5200 hc         1 O30       0.047700
     38 H12          1.4310    -1.4760    13.9730 hc         1 O30       0.046700
     39 H12A        -0.2780    -1.0770    14.0880 hc         1 O30       0.046700
     40 H13         -0.1280    -0.5820    16.4570 hc         1 O30       0.058700
     41 H13A         1.2770     0.1920    15.7250 hc         1 O30       0.058700
     42 H14          3.2910     0.1000    19.3840 h1         1 O30       0.093200
     43 H14A         2.7760     0.8300    17.8490 h1         1 O30       0.093200
     44 HN17         0.8410     1.7020    17.6840 hn         1 O30       0.378500
     45 H23         -3.4590     5.0680    17.8090 hc         1 O30       0.047700
     46 H23A        -3.9350     3.7600    16.7190 hc         1 O30       0.047700
     47 H24         -5.8310     4.8290    18.0660 hc         1 O30       0.045700
     48 H24A        -5.7520     3.0710    18.0880 hc         1 O30       0.045700
     49 H25         -4.6280     4.8980    20.2960 hc         1 O30       0.045200
     50 H25A        -6.1530     4.0180    20.3950 hc         1 O30       0.045200
     51 H26         -5.0350     1.8560    20.3460 hc         1 O30       0.052200
     52 H26A        -4.1900     2.8360    21.5340 hc         1 O30       0.052200
     53 HN29        -2.3620     4.5050    16.3720 hn         1 O30       0.320500
     54 H30         -0.0200     5.2420    14.9230 h1         1 O30       0.054200
     55 H30A        -0.8920     3.9960    13.9950 h1         1 O30       0.054200
     56 H31         -2.9620     5.4170    14.0390 hc         1 O30       0.050700
     57 H31A        -2.1220     6.6220    15.0090 hc         1 O30       0.050700
     58 H32         -2.1950     7.4060    12.7130 h1         1 O30       0.031700
     59 H32A        -0.5040     7.0260    13.1170 h1         1 O30       0.031700
     60 HN33        -1.1020     6.2140    10.9670 hn         1 O30       0.397000
     61 HN3A        -0.6980     4.9890    11.9350 hn         1 O30       0.397000
@<TRIPOS>BOND
     1     1     2 1   
     2     2     3 1   
     3     2     4 1   
     4     2     5 1   
     5     5     6 2   
     6     5     9 1   
     7     6     7 1   
     8     7     8 1   
     9     7    14 1   
    10     8     9 2   
    11     8    13 1   
    12     9    10 1   
    13    10    11 1   
    14    10    34 1   
    15    10    35 1   
    16    11    12 1   
    17    11    36 1   
    18    11    37 1   
    19    12    13 1   
    20    12    38 1   
    21    12    39 1   
    22    13    40 1   
    23    13    41 1   
    24    14    15 1   
    25    14    42 1   
    26    14    43 1   
    27    15    16 2   
    28    15    17 1   
    29    17    18 1   
    30    17    44 1   
    31    18    19 1   
    32    18    22 2   
    33    19    20 1   
    34    20    21 2   
    35    20    26 1   
    36    21    22 1   
    37    21    23 1   
    38    22    27 1   
    39    23    24 1   
    40    23    45 1   
    41    23    46 1   
    42    24    25 1   
    43    24    47 1   
    44    24    48 1   
    45    25    26 1   
    46    25    49 1   
    47    25    50 1   
    48    26    51 1   
    49    26    52 1   
    50    27    28 2   
    51    27    29 1   
    52    29    30 1   
    53    29    53 1   
    54    30    31 1   
    55    30    54 1   
    56    30    55 1   
    57    31    32 1   
    58    31    56 1   
    59    31    57 1   
    60    32    33 1   
    61    32    58 1   
    62    32    59 1   
    63    33    60 1   
    64    33    61 1   
@<TRIPOS>SUBSTRUCTURE
     1 O30         1 TEMP              0 ****  ****    0 ROOT
