@<TRIPOS>MOLECULE
O31
  104   110     1     0     0
SMALL
No Charge or Current Charge


@<TRIPOS>ATOM
      1 C13         11.1250    12.7720     3.6970 cx         1 O31      -0.154700
      2 C20          6.6470    12.9630     2.3450 c5         1 O31       0.028700
      3 C21          5.9290    11.5860     2.5390 c5         1 O31      -0.116400
      4 C22          4.5050    11.8670     1.9800 c5         1 O31       0.165300
      5 C01          7.8830     9.9480    -0.6520 c3         1 O31      -0.042100
      6 C02          8.7680     8.8770    -0.0010 cx         1 O31      -0.403000
      7 C03          8.5000     7.4120    -0.2990 cx         1 O31      -0.078400
      8 C04          8.1860     7.9710     1.0710 cx         1 O31      -0.078400
      9 C09         10.3960    10.4260     2.7140 c          1 O31       0.664100
     10 C11         10.0560    11.7070     3.4910 cx         1 O31      -0.031600
     11 C12         10.6970    11.8980     4.8550 cx         1 O31      -0.087400
     12 C14         12.5390    12.7040     3.1050 c3         1 O31       0.218300
     13 C18          8.1860    12.7580     2.2010 c          1 O31       0.602100
     14 C23          4.8430    12.6410     0.6820 c5         1 O31       0.102000
     15 C25          6.1540    14.8360     0.7170 c          1 O31       0.603100
     16 C27          5.5530    15.3160    -0.6500 c3         1 O31       0.067700
     17 C29          3.8310    16.9830     0.0710 c          1 O31       0.643100
     18 C32          2.5010    18.7980     0.8650 c5         1 O31       0.158300
     19 C33          2.4300    20.3320     0.6370 c5         1 O31      -0.078400
     20 C34          3.4810    20.8470     1.6510 c5         1 O31      -0.074400
     21 C35          3.0310    20.1030     2.9330 c5         1 O31      -0.077400
     22 C36          2.6800    18.6630     2.4310 c5         1 O31       0.138300
     23 C38          0.9640    16.9470     2.9990 c3         1 O31       0.178800
     24 C39          1.6870    16.1930     4.0980 c2         1 O31      -0.191200
     25 C40          2.7840    15.4280     3.9400 c2         1 O31      -0.285200
     26 C41          3.5470    14.6910     5.0360 c3         1 O31       0.202900
     27 C42          3.1580    13.1960     5.1380 ca         1 O31       0.242300
     28 C44          2.3350    11.4350     6.4110 ca         1 O31       0.188000
     29 C45          1.8090    10.9210     7.6110 ca         1 O31      -0.049000
     30 C46          1.4700     9.5630     7.7290 ca         1 O31      -0.117000
     31 C47          1.6550     8.6980     6.6400 ca         1 O31      -0.078000
     32 C48          2.1790     9.1940     5.4350 ca         1 O31      -0.099000
     33 C49          2.5250    10.5510     5.2980 ca         1 O31       0.282000
     34 C51          3.3610    12.3070     4.0330 ca         1 O31       0.574300
     35 C55          6.5280    15.1650    -1.8730 c3         1 O31      -0.045000
     36 C56          6.9280    13.6760    -2.0630 c3         1 O31      -0.091100
     37 C57          7.8210    16.0060    -1.6760 c3         1 O31      -0.091100
     38 C58          5.8150    15.6410    -3.1690 c3         1 O31      -0.091100
     39 F15         12.4810    12.9690     1.7800 f          1 O31      -0.107500
     40 F16         13.0760    11.4690     3.2370 f          1 O31      -0.107500
     41 F53          4.8720    14.8050     4.7900 f          1 O31      -0.104000
     42 F54          3.3600    15.3380     6.2150 f          1 O31      -0.104000
     43 N08         10.4440    10.6080     1.3710 ns         1 O31      -0.566300
     44 N17          8.6960    12.1970     3.3570 ns         1 O31      -0.494900
     45 N24          5.9840    13.4910     1.1170 n          1 O31      -0.393800
     46 N28          5.0430    16.6940    -0.4830 ns         1 O31      -0.486900
     47 N43          2.6510    12.7530     6.3300 nb         1 O31      -0.573000
     48 N50          3.0280    10.9880     4.1150 nb         1 O31      -0.745000
     49 O06         11.3580     8.3330     0.6530 o          1 O31      -0.509000
     50 O07         10.9120    10.1530    -1.0670 o          1 O31      -0.509000
     51 O10         10.5670     9.3480     3.2620 o          1 O31      -0.525100
     52 O19          8.8800    13.0050     1.2240 o          1 O31      -0.557100
     53 O26          6.7930    15.6020     1.4330 o          1 O31      -0.603100
     54 O30          3.0140    16.1450     0.4120 o          1 O31      -0.571000
     55 O31          3.7080    18.3350     0.1890 os         1 O31      -0.451100
     56 O37          1.4030    18.3180     3.0360 os         1 O31      -0.446000
     57 O52          3.8230    12.8350     2.8360 os         1 O31      -0.449300
     58 S05         10.5490     9.4580     0.1720 s6         1 O31       1.249800
     59 H131        10.7710    13.8000     3.7160 hc         1 O31       0.110700
     60 H201         6.4680    13.6290     3.1980 h1         1 O31       0.083700
     61 H212         5.9230    11.2510     3.5820 hc         1 O31       0.072700
     62 H211         6.4130    10.7930     1.9550 hc         1 O31       0.072700
     63 H221         3.8900    10.9760     1.7870 h1         1 O31       0.094700
     64 H012         6.8390     9.6200    -0.7170 hc         1 O31       0.053367
     65 H013         7.8940    10.8820    -0.0800 hc         1 O31       0.053367
     66 H011         8.2170    10.1760    -1.6720 hc         1 O31       0.053367
     67 H031         7.6610     7.1630    -0.9460 hc         1 O31       0.089200
     68 H032         9.3460     6.7320    -0.3830 hc         1 O31       0.089200
     69 H042         8.8230     7.6580     1.8950 hc         1 O31       0.089200
     70 H041         7.1380     8.0950     1.3370 hc         1 O31       0.089200
     71 H122        11.3850    11.1330     5.2100 hc         1 O31       0.098200
     72 H121        10.1040    12.3590     5.6410 hc         1 O31       0.098200
     73 H141        13.2250    13.4220     3.5670 h2         1 O31       0.055700
     74 H231         3.9690    13.2170     0.3500 h1         1 O31       0.079200
     75 H232         5.1420    11.9600    -0.1250 h1         1 O31       0.079200
     76 H271         4.6840    14.6910    -0.8750 h1         1 O31       0.077700
     77 H321         1.6170    18.2810     0.4670 h1         1 O31       0.076700
     78 H332         2.6670    20.6140    -0.3950 hc         1 O31       0.061200
     79 H331         1.4290    20.7210     0.8590 hc         1 O31       0.061200
     80 H342         4.5040    20.5790     1.3600 hc         1 O31       0.049200
     81 H341         3.4500    21.9370     1.7690 hc         1 O31       0.049200
     82 H352         2.1620    20.5990     3.3830 hc         1 O31       0.058700
     83 H351         3.8180    20.0890     3.6950 hc         1 O31       0.058700
     84 H361         3.4480    17.9290     2.7110 h1         1 O31       0.062700
     85 H382        -0.1160    16.8970     3.1880 h1         1 O31       0.062200
     86 H381         1.1420    16.4880     2.0200 h1         1 O31       0.062200
     87 H391         1.2370    16.3310     5.0830 ha         1 O31       0.195000
     88 H401         3.2250    15.3140     2.9480 ha         1 O31       0.217000
     89 H451         1.6630    11.5860     8.4590 ha         1 O31       0.139000
     90 H461         1.0650     9.1820     8.6640 ha         1 O31       0.125000
     91 H471         1.3930     7.6460     6.7280 ha         1 O31       0.122000
     92 H481         2.3200     8.5200     4.5940 ha         1 O31       0.132000
     93 H563         7.4980    13.2990    -1.2060 hc         1 O31       0.042256
     94 H562         6.0410    13.0430    -2.1900 hc         1 O31       0.042256
     95 H561         7.5570    13.5500    -2.9530 hc         1 O31       0.042256
     96 H571         8.3910    15.6630    -0.8040 hc         1 O31       0.042256
     97 H573         8.4760    15.9210    -2.5510 hc         1 O31       0.042256
     98 H572         7.5910    17.0690    -1.5370 hc         1 O31       0.042256
     99 H583         5.5680    16.7080    -3.1250 hc         1 O31       0.042256
    100 H582         6.4530    15.4860    -4.0480 hc         1 O31       0.042256
    101 H581         4.8830    15.0850    -3.3300 hc         1 O31       0.042256
    102 H081        10.2100    11.5180     1.0050 hn         1 O31       0.333500
    103 H171         8.0370    12.0380     4.1120 hn         1 O31       0.326500
    104 H281         5.6420    17.4810    -0.6880 hn         1 O31       0.342500
@<TRIPOS>BOND
     1     1    10 1   
     2     1    11 1   
     3     1    12 1   
     4     1    59 1   
     5     2     3 1   
     6     2    13 1   
     7     2    45 1   
     8     2    60 1   
     9     3     4 1   
    10     3    61 1   
    11     3    62 1   
    12     4    14 1   
    13     4    57 1   
    14     4    63 1   
    15     5     6 1   
    16     5    64 1   
    17     5    65 1   
    18     5    66 1   
    19     6     7 1   
    20     6     8 1   
    21     6    58 1   
    22     7     8 1   
    23     7    67 1   
    24     7    68 1   
    25     8    69 1   
    26     8    70 1   
    27     9    10 1   
    28     9    43 1   
    29     9    51 2   
    30    10    11 1   
    31    10    44 1   
    32    11    71 1   
    33    11    72 1   
    34    12    39 1   
    35    12    40 1   
    36    12    73 1   
    37    13    44 1   
    38    13    52 2   
    39    14    45 1   
    40    14    74 1   
    41    14    75 1   
    42    15    16 1   
    43    15    45 1   
    44    15    53 2   
    45    16    35 1   
    46    16    46 1   
    47    16    76 1   
    48    17    46 1   
    49    17    54 2   
    50    17    55 1   
    51    18    19 1   
    52    18    22 1   
    53    18    55 1   
    54    18    77 1   
    55    19    20 1   
    56    19    78 1   
    57    19    79 1   
    58    20    21 1   
    59    20    80 1   
    60    20    81 1   
    61    21    22 1   
    62    21    82 1   
    63    21    83 1   
    64    22    56 1   
    65    22    84 1   
    66    23    24 1   
    67    23    56 1   
    68    23    85 1   
    69    23    86 1   
    70    24    25 2   
    71    24    87 1   
    72    25    26 1   
    73    25    88 1   
    74    26    27 1   
    75    26    41 1   
    76    26    42 1   
    77    27    34 ar  
    78    27    47 ar  
    79    28    29 ar  
    80    28    33 ar  
    81    28    47 ar  
    82    29    30 ar  
    83    29    89 1   
    84    30    31 ar  
    85    30    90 1   
    86    31    32 ar  
    87    31    91 1   
    88    32    33 ar  
    89    32    92 1   
    90    33    48 ar  
    91    34    48 ar  
    92    34    57 1   
    93    35    36 1   
    94    35    37 1   
    95    35    38 1   
    96    36    93 1   
    97    36    94 1   
    98    36    95 1   
    99    37    96 1   
   100    37    97 1   
   101    37    98 1   
   102    38    99 1   
   103    38   100 1   
   104    38   101 1   
   105    43    58 1   
   106    43   102 1   
   107    44   103 1   
   108    46   104 1   
   109    49    58 2   
   110    50    58 2   
@<TRIPOS>SUBSTRUCTURE
     1 O31         1 TEMP              0 ****  ****    0 ROOT
