@<TRIPOS>MOLECULE
O31
  104   110     1     0     0
SMALL
bcc


@<TRIPOS>ATOM
      1 C13         11.1590    13.5680     1.9270 cx         1 O31      -0.154700
      2 C20          6.6840    12.9800     1.7740 c5         1 O31       0.028700
      3 C21          5.9390    11.6390     1.7620 c5         1 O31      -0.116400
      4 C22          4.5330    12.0440     1.3580 c5         1 O31       0.142100
      5 C01          7.8630     8.2340     0.6260 c3         1 O31      -0.042100
      6 C02          8.3730     7.9230     2.0100 cx         1 O31      -0.292200
      7 C03          7.9780     6.6520     2.7030 cx         1 O31      -0.078400
      8 C04          7.4610     7.9570     3.2050 cx         1 O31      -0.078400
      9 C09         10.7820    11.0250     2.4260 c          1 O31       0.731100
     10 C11         10.3330    12.4550     2.5420 cx         1 O31      -0.031600
     11 C12         11.1840    13.3600     3.3940 cx         1 O31      -0.087400
     12 C14         12.3610    13.4020     1.0380 c3         1 O31       0.460900
     13 C18          8.1610    12.7750     1.4720 c          1 O31       0.669100
     14 C23          4.7830    13.0870     0.2880 c5         1 O31       0.102000
     15 C25          6.4150    14.9990     0.4720 c          1 O31       0.670100
     16 C27          5.7100    15.7590    -0.6540 c3         1 O31       0.067700
     17 C29          4.0950    17.2060     0.4430 c          1 O31       0.759100
     18 C32          2.6830    18.8010     1.4870 c5         1 O31       0.135100
     19 C33          2.4830    20.3020     1.3820 c5         1 O31      -0.078400
     20 C34          3.4990    20.8790     2.3650 c5         1 O31      -0.074400
     21 C35          3.5140    19.8710     3.5260 c5         1 O31      -0.077400
     22 C36          2.8980    18.5610     2.9960 c5         1 O31       0.115100
     23 C38          1.1570    17.0330     3.5280 c3         1 O31       0.155600
     24 C39          1.8870    16.0930     4.4390 c2         1 O31      -0.141200
     25 C40          2.6320    15.0950     3.9800 c2         1 O31      -0.235200
     26 C41          3.3970    14.1500     4.8470 c3         1 O31       0.445500
     27 C42          3.0380    12.6880     4.6480 ca         1 O31       0.242300
     28 C44          2.1890    10.7500     5.4920 ca         1 O31       0.253300
     29 C45          1.5460    10.0600     6.5370 ca         1 O31      -0.132300
     30 C46          1.3110     8.7150     6.4180 ca         1 O31      -0.135000
     31 C47          1.7120     8.0230     5.2580 ca         1 O31      -0.096000
     32 C48          2.3400     8.6770     4.2280 ca         1 O31      -0.182300
     33 C49          2.5830    10.0590     4.3260 ca         1 O31       0.347300
     34 C51          3.3800    11.9890     3.4390 ca         1 O31       0.574300
     35 C55          6.5780    15.8740    -1.9370 c3         1 O31      -0.045000
     36 C56          6.9140    14.4620    -2.4240 c3         1 O31      -0.091100
     37 C57          7.8780    16.6550    -1.7340 c3         1 O31      -0.091100
     38 C58          5.7400    16.5710    -3.0130 c3         1 O31      -0.091100
     39 F15         12.1430    12.4620     0.0770 f          1 O31      -0.228800
     40 F16         13.4810    13.0340     1.7130 f          1 O31      -0.228800
     41 F53          4.7380    14.2900     4.6000 f          1 O31      -0.225300
     42 F54          3.2330    14.4540     6.1540 f          1 O31      -0.225300
     43 N08          9.7580    10.1180     2.3690 ns         1 O31      -0.633300
     44 N17          8.9290    12.6790     2.5860 ns         1 O31      -0.561900
     45 N24          6.0050    13.7450     0.7450 n          1 O31      -0.460800
     46 N28          5.2840    17.0490    -0.1700 ns         1 O31      -0.553900
     47 N43          2.4510    12.0740     5.6200 nb         1 O31      -0.573000
     48 N50          3.1820    10.7200     3.3070 nb         1 O31      -0.745000
     49 O06         10.5160     7.9860     3.5780 o          1 O31      -0.579800
     50 O07         10.8420     8.1880     1.1100 o          1 O31      -0.579800
     51 O10         11.9430    10.6900     2.4060 o          1 O31      -0.525100
     52 O19          8.5990    12.6230     0.3500 o          1 O31      -0.557100
     53 O26          7.3340    15.5090     1.0980 o          1 O31      -0.603100
     54 O30          3.3010    16.3080     0.6460 o          1 O31      -0.620000
     55 O31          3.8870    18.4830     0.7750 os         1 O31      -0.427900
     56 O37          1.6590    18.3500     3.6430 os         1 O31      -0.399600
     57 O52          3.8980    12.7140     2.4540 os         1 O31      -0.426100
     58 S05         10.0380     8.4510     2.2880 s6         1 O31       1.280600
     59 H131        10.5350    14.3870     1.5890 hc         1 O31       0.110700
     60 H201         6.5730    13.4670     2.7480 h1         1 O31       0.083700
     61 H212         5.9950    11.1120     2.7150 hc         1 O31       0.072700
     62 H211         6.3440    10.9790     0.9920 hc         1 O31       0.072700
     63 H221         3.9180    11.2180     1.0010 h1         1 O31       0.094700
     64 H012         6.8210     7.9240     0.5520 hc         1 O31       0.053367
     65 H013         7.9060     9.3000     0.4040 hc         1 O31       0.053367
     66 H011         8.4270     7.6980    -0.1350 hc         1 O31       0.053367
     67 H031         7.3160     6.0070     2.1400 hc         1 O31       0.089200
     68 H032         8.7060     6.1280     3.3070 hc         1 O31       0.089200
     69 H042         7.8430     8.3190     4.1520 hc         1 O31       0.089200
     70 H041         6.4340     8.2320     3.0030 hc         1 O31       0.089200
     71 H122        12.0640    12.9160     3.8400 hc         1 O31       0.098200
     72 H121        10.6650    14.0720     4.0230 hc         1 O31       0.098200
     73 H141        12.5790    14.3450     0.5350 h2         1 O31       0.055700
     74 H231         3.9530    13.7840     0.1950 h1         1 O31       0.079200
     75 H232         4.9280    12.5910    -0.6740 h1         1 O31       0.079200
     76 H271         4.8140    15.2230    -0.9640 h1         1 O31       0.077700
     77 H321         1.8470    18.2320     1.0760 h1         1 O31       0.076700
     78 H332         2.5810    20.6750     0.3620 hc         1 O31       0.061200
     79 H331         1.4660    20.5240     1.7150 hc         1 O31       0.061200
     80 H342         4.4830    20.9430     1.8960 hc         1 O31       0.049200
     81 H341         3.2370    21.8840     2.6920 hc         1 O31       0.049200
     82 H352         2.9120    20.2280     4.3630 hc         1 O31       0.058700
     83 H351         4.5210    19.7070     3.9100 hc         1 O31       0.058700
     84 H361         3.5660    17.7090     3.1660 h1         1 O31       0.062700
     85 H382         0.1050    17.0810     3.8160 h1         1 O31       0.062200
     86 H381         1.1980    16.6670     2.4960 h1         1 O31       0.062200
     87 H391         1.7920    16.2820     5.5030 ha         1 O31       0.145000
     88 H401         2.7230    14.9320     2.9120 ha         1 O31       0.167000
     89 H451         1.2500    10.6090     7.4220 ha         1 O31       0.157000
     90 H461         0.8170     8.1780     7.2160 ha         1 O31       0.143000
     91 H471         1.5210     6.9610     5.1820 ha         1 O31       0.140000
     92 H481         2.6500     8.1520     3.3340 ha         1 O31       0.150000
     93 H563         7.5480    13.9180    -1.7240 hc         1 O31       0.042256
     94 H562         6.0100    13.8730    -2.5910 hc         1 O31       0.042256
     95 H561         7.4480    14.5170    -3.3730 hc         1 O31       0.042256
     96 H571         8.5530    16.1660    -1.0360 hc         1 O31       0.042256
     97 H573         8.3960    16.7380    -2.6910 hc         1 O31       0.042256
     98 H572         7.7090    17.6750    -1.3810 hc         1 O31       0.042256
     99 H583         5.5000    17.6010    -2.7450 hc         1 O31       0.042256
    100 H582         6.2950    16.5970    -3.9520 hc         1 O31       0.042256
    101 H581         4.8030    16.0410    -3.1970 hc         1 O31       0.042256
    102 H081         8.8180    10.4060     2.6140 hn         1 O31       0.333500
    103 H171         8.5110    12.8660     3.4870 hn         1 O31       0.326500
    104 H281         5.9170    17.8320    -0.2110 hn         1 O31       0.342500
@<TRIPOS>BOND
     1     1    10 1   
     2     1    11 1   
     3     1    12 1   
     4     1    59 1   
     5     2     3 1   
     6     2    13 1   
     7     2    45 1   
     8     2    60 1   
     9     3     4 1   
    10     3    61 1   
    11     3    62 1   
    12     4    14 1   
    13     4    57 1   
    14     4    63 1   
    15     5     6 1   
    16     5    64 1   
    17     5    65 1   
    18     5    66 1   
    19     6     7 1   
    20     6     8 1   
    21     6    58 1   
    22     7     8 1   
    23     7    67 1   
    24     7    68 1   
    25     8    69 1   
    26     8    70 1   
    27     9    10 1   
    28     9    43 1   
    29     9    51 2   
    30    10    11 1   
    31    10    44 1   
    32    11    71 1   
    33    11    72 1   
    34    12    39 1   
    35    12    40 1   
    36    12    73 1   
    37    13    44 1   
    38    13    52 2   
    39    14    45 1   
    40    14    74 1   
    41    14    75 1   
    42    15    16 1   
    43    15    45 1   
    44    15    53 2   
    45    16    35 1   
    46    16    46 1   
    47    16    76 1   
    48    17    46 1   
    49    17    54 2   
    50    17    55 1   
    51    18    19 1   
    52    18    22 1   
    53    18    55 1   
    54    18    77 1   
    55    19    20 1   
    56    19    78 1   
    57    19    79 1   
    58    20    21 1   
    59    20    80 1   
    60    20    81 1   
    61    21    22 1   
    62    21    82 1   
    63    21    83 1   
    64    22    56 1   
    65    22    84 1   
    66    23    24 1   
    67    23    56 1   
    68    23    85 1   
    69    23    86 1   
    70    24    25 2   
    71    24    87 1   
    72    25    26 1   
    73    25    88 1   
    74    26    27 1   
    75    26    41 1   
    76    26    42 1   
    77    27    34 ar  
    78    27    47 ar  
    79    28    29 ar  
    80    28    33 ar  
    81    28    47 ar  
    82    29    30 ar  
    83    29    89 1   
    84    30    31 ar  
    85    30    90 1   
    86    31    32 ar  
    87    31    91 1   
    88    32    33 ar  
    89    32    92 1   
    90    33    48 ar  
    91    34    48 ar  
    92    34    57 1   
    93    35    36 1   
    94    35    37 1   
    95    35    38 1   
    96    36    93 1   
    97    36    94 1   
    98    36    95 1   
    99    37    96 1   
   100    37    97 1   
   101    37    98 1   
   102    38    99 1   
   103    38   100 1   
   104    38   101 1   
   105    43    58 1   
   106    43   102 1   
   107    44   103 1   
   108    46   104 1   
   109    49    58 2   
   110    50    58 2   
@<TRIPOS>SUBSTRUCTURE
     1 O31         1 TEMP              0 ****  ****    0 ROOT
