@<TRIPOS>MOLECULE
O32
   50    54     1     0     0
SMALL
abcg2


@<TRIPOS>ATOM
      1 C4          -3.4100     7.6860   -22.9540 ca         1 O32       0.300000
      2 C5          -3.9020     8.4810   -25.2180 ca         1 O32       0.182100
      3 C6          -3.4830     7.4330   -24.3450 ca         1 O32      -0.107000
      4 C10         -2.6960     5.5550   -22.5290 ca         1 O32       0.366900
      5 C13         -5.8530     9.2050   -27.5750 c3         1 O32      -0.123100
      6 C15         -4.0540     7.1330   -29.1320 c5         1 O32      -0.164400
      7 C20         -4.5590    11.2740   -22.7960 cc         1 O32      -0.072000
      8 C21         -4.2010    12.4720   -23.4980 cc         1 O32      -0.086000
      9 C22         -4.5580    13.6980   -23.0390 cd         1 O32      -0.077000
     10 C28         -6.3490    13.0010   -20.0970 cd         1 O32       0.323800
     11 C1          -4.1640     9.9490   -23.3070 ca         1 O32       0.015000
     12 C11         -2.7420     5.2020   -23.8910 ca         1 O32      -0.179000
     13 C12         -4.3400     9.0870   -27.5130 c3         1 O32       0.183300
     14 C14         -3.7320     8.5990   -28.8250 c5         1 O32      -0.076700
     15 C16         -2.8250     6.3650   -28.6920 c          1 O32       0.571000
     16 C18         -2.1910     8.6270   -28.7970 c5         1 O32       0.108000
     17 C2          -3.7520     8.9600   -22.4520 ca         1 O32      -0.115000
     18 C23         -5.2810    11.3750   -21.6500 cd         1 O32      -0.079000
     19 C25         -5.3050    13.7810   -21.8410 cd         1 O32      -0.105000
     20 C29         -6.9170    12.0630   -19.1040 c3         1 O32      -0.102400
     21 C3          -4.2350     9.7080   -24.7010 ca         1 O32      -0.220000
     22 C9          -3.1360     6.1440   -24.8010 ca         1 O32      -0.032000
     23 N17         -1.8310     7.2510   -28.5480 ns         1 O32      -0.509900
     24 N24         -5.6350    12.6120   -21.1940 na         1 O32       0.012200
     25 N26         -5.7880    14.8010   -21.1720 nc         1 O32      -0.092000
     26 N27         -6.4310    14.3030   -20.0960 nc         1 O32      -0.354700
     27 N7          -3.0120     6.7380   -22.0730 nb         1 O32      -0.674000
     28 O19         -2.7470     5.1570   -28.5230 o          1 O32      -0.561000
     29 O8          -3.9320     8.1520   -26.5140 os         1 O32      -0.349100
     30 H33         -2.3840     4.8180   -21.7970 h4         1 O32       0.020100
     31 H37         -6.1290     9.9360   -28.3350 hc         1 O32       0.052033
     32 H38         -6.3220     8.2550   -27.8330 hc         1 O32       0.052033
     33 H40         -4.9500     6.7500   -28.6450 hc         1 O32       0.079700
     34 H41         -4.1860     6.9750   -30.2060 hc         1 O32       0.079700
     35 H45         -3.6150    12.3930   -24.4040 ha         1 O32       0.126000
     36 H46         -4.2850    14.6060   -23.5570 ha         1 O32       0.147000
     37 H34         -2.4680     4.2030   -24.1990 ha         1 O32       0.131000
     38 H35         -3.9050    10.0690   -27.2930 h1         1 O32       0.046700
     39 H39         -4.1030     9.2620   -29.6080 hc         1 O32       0.071700
     40 H43         -1.7860     8.9750   -29.7500 h1         1 O32       0.046700
     41 H44         -1.8010     9.2830   -28.0170 h1         1 O32       0.046700
     42 H30         -3.6640     9.1330   -21.3870 ha         1 O32       0.134000
     43 H47         -5.6170    10.5260   -21.0720 h4         1 O32       0.154000
     44 H50         -7.4760    12.6210   -18.3570 hc         1 O32       0.060700
     45 H48         -7.5930    11.3460   -19.5730 hc         1 O32       0.060700
     46 H49         -6.1360    11.4980   -18.5930 hc         1 O32       0.060700
     47 H31         -4.5870    10.5050   -25.3420 ha         1 O32       0.120000
     48 H32         -3.1850     5.8970   -25.8520 ha         1 O32       0.144000
     49 H42         -0.8930     6.9720   -28.3070 hn         1 O32       0.330500
     50 H36         -6.2770     9.5400   -26.6290 hc         1 O32       0.052033
@<TRIPOS>BOND
     1     1     3 ar  
     2     1    17 ar  
     3     1    27 ar  
     4     2     3 ar  
     5     2    21 ar  
     6     2    29 1   
     7     3    22 ar  
     8     4    12 ar  
     9     4    27 ar  
    10     4    30 1   
    11     5    13 1   
    12     5    31 1   
    13     5    32 1   
    14     5    50 1   
    15     6    14 1   
    16     6    15 1   
    17     6    33 1   
    18     6    34 1   
    19     7     8 1   
    20     7    11 1   
    21     7    18 2   
    22     8     9 2   
    23     8    35 1   
    24     9    19 1   
    25     9    36 1   
    26    10    20 1   
    27    10    24 1   
    28    10    26 2   
    29    11    17 ar  
    30    11    21 ar  
    31    12    22 ar  
    32    12    37 1   
    33    13    14 1   
    34    13    29 1   
    35    13    38 1   
    36    14    16 1   
    37    14    39 1   
    38    15    23 1   
    39    15    28 2   
    40    16    23 1   
    41    16    40 1   
    42    16    41 1   
    43    17    42 1   
    44    18    24 1   
    45    18    43 1   
    46    19    24 1   
    47    19    25 2   
    48    20    44 1   
    49    20    45 1   
    50    20    46 1   
    51    21    47 1   
    52    22    48 1   
    53    23    49 1   
    54    25    26 1   
@<TRIPOS>SUBSTRUCTURE
     1 O32         1 TEMP              0 ****  ****    0 ROOT
