@<TRIPOS>MOLECULE
O32
   50    54     1     0     0
SMALL
No Charge or Current Charge


@<TRIPOS>ATOM
      1 C4          -3.6470     7.6460   -22.8830 ca         1 O32       0.300000
      2 C5          -3.8450     8.4510   -25.1860 ca         1 O32       0.182100
      3 C6          -3.5750     7.4090   -24.2760 ca         1 O32      -0.107000
      4 C10         -3.0620     5.4390   -22.4170 ca         1 O32       0.366900
      5 C13         -5.8040     9.0020   -27.5420 c3         1 O32      -0.123100
      6 C15         -3.8690     7.1500   -29.3790 c5         1 O32      -0.164400
      7 C20         -4.6120    11.3480   -22.8220 cc         1 O32      -0.072000
      8 C21         -4.4730    12.5470   -23.6370 cc         1 O32      -0.086000
      9 C22         -4.8790    13.7840   -23.1820 cd         1 O32      -0.077000
     10 C28         -6.1780    13.0070   -19.9560 cd         1 O32       0.323800
     11 C1          -4.2610     9.9930   -23.3120 ca         1 O32       0.015000
     12 C11         -2.9740     5.1200   -23.7780 ca         1 O32      -0.179000
     13 C12         -4.2590     9.0590   -27.5740 c3         1 O32       0.183300
     14 C14         -3.6430     8.6260   -28.9400 c5         1 O32      -0.076700
     15 C16         -2.6650     6.4120   -28.8190 c          1 O32       0.571000
     16 C18         -2.0810     8.7170   -28.9980 c5         1 O32       0.108000
     17 C2          -3.9890     8.9280   -22.4250 ca         1 O32      -0.115000
     18 C23         -5.2110    11.3990   -21.5550 cd         1 O32      -0.079000
     19 C25         -5.4430    13.8010   -21.8780 cd         1 O32      -0.105000
     20 C29         -6.5450    12.0870   -18.8240 c3         1 O32      -0.102400
     21 C3          -4.1750     9.7340   -24.6970 ca         1 O32      -0.220000
     22 C9          -3.2340     6.1170   -24.7280 ca         1 O32      -0.032000
     23 N17         -1.6590     7.3340   -28.7530 ns         1 O32      -0.509900
     24 N24         -5.5630    12.6840   -21.1300 na         1 O32       0.012200
     25 N26         -5.9320    14.8260   -21.1990 nc         1 O32      -0.092000
     26 N27         -6.4000    14.3210   -19.9750 nc         1 O32      -0.354700
     27 N7          -3.3910     6.6730   -21.9750 nb         1 O32      -0.674000
     28 O19         -2.6000     5.3060   -28.3090 o          1 O32      -0.561000
     29 O8          -3.7560     8.1830   -26.5440 os         1 O32      -0.349100
     30 H33         -2.8640     4.6850   -21.6550 h4         1 O32       0.020100
     31 H37         -6.2260     9.5760   -28.3760 hc         1 O32       0.052033
     32 H38         -6.1630     7.9700   -27.6190 hc         1 O32       0.052033
     33 H40         -4.8100     6.6840   -29.0720 hc         1 O32       0.079700
     34 H41         -3.7900     7.1100   -30.4710 hc         1 O32       0.079700
     35 H45         -4.0190    12.4800   -24.6190 ha         1 O32       0.126000
     36 H46         -4.7770    14.6820   -23.7830 ha         1 O32       0.147000
     37 H34         -2.7070     4.1130   -24.0850 ha         1 O32       0.131000
     38 H35         -3.9330    10.0930   -27.4040 h1         1 O32       0.046700
     39 H39         -4.0770     9.3130   -29.6770 hc         1 O32       0.071700
     40 H43         -1.7460     9.0540   -29.9890 h1         1 O32       0.046700
     41 H44         -1.6800     9.4180   -28.2530 h1         1 O32       0.046700
     42 H30         -3.9990     9.0830   -21.3520 ha         1 O32       0.134000
     43 H47         -5.4340    10.5700   -20.8970 h4         1 O32       0.154000
     44 H50         -6.9880    12.6420   -17.9890 hc         1 O32       0.060700
     45 H48         -7.2730    11.3360   -19.1520 hc         1 O32       0.060700
     46 H49         -5.6600    11.5620   -18.4460 hc         1 O32       0.060700
     47 H31         -4.3940    10.5310   -25.3940 ha         1 O32       0.120000
     48 H32         -3.1700     5.8840   -25.7880 ha         1 O32       0.144000
     49 H42         -0.7910     7.0600   -28.3090 hn         1 O32       0.330500
     50 H36         -6.1970     9.4300   -26.6130 hc         1 O32       0.052033
@<TRIPOS>BOND
     1     1     3 ar  
     2     1    17 ar  
     3     1    27 ar  
     4     2     3 ar  
     5     2    21 ar  
     6     2    29 1   
     7     3    22 ar  
     8     4    12 ar  
     9     4    27 ar  
    10     4    30 1   
    11     5    13 1   
    12     5    31 1   
    13     5    32 1   
    14     5    50 1   
    15     6    14 1   
    16     6    15 1   
    17     6    33 1   
    18     6    34 1   
    19     7     8 1   
    20     7    11 1   
    21     7    18 2   
    22     8     9 2   
    23     8    35 1   
    24     9    19 1   
    25     9    36 1   
    26    10    20 1   
    27    10    24 1   
    28    10    26 2   
    29    11    17 ar  
    30    11    21 ar  
    31    12    22 ar  
    32    12    37 1   
    33    13    14 1   
    34    13    29 1   
    35    13    38 1   
    36    14    16 1   
    37    14    39 1   
    38    15    23 1   
    39    15    28 2   
    40    16    23 1   
    41    16    40 1   
    42    16    41 1   
    43    17    42 1   
    44    18    24 1   
    45    18    43 1   
    46    19    24 1   
    47    19    25 2   
    48    20    44 1   
    49    20    45 1   
    50    20    46 1   
    51    21    47 1   
    52    22    48 1   
    53    23    49 1   
    54    25    26 1   
@<TRIPOS>SUBSTRUCTURE
     1 O32         1 TEMP              0 ****  ****    0 ROOT
