@<TRIPOS>MOLECULE
O33
   99   104     1     0     0
SMALL
No Charge or Current Charge


@<TRIPOS>ATOM
      1 C30        -10.3830     2.8420     0.7460 ca         1 O33       0.308900
      2 C31         -9.2970     2.0230     0.3930 ca         1 O33      -0.117000
      3 C28         -9.2410     1.4710    -0.9040 ca         1 O33      -0.031000
      4 C27        -10.2950     1.7750    -1.7920 ca         1 O33      -0.069000
      5 C29        -11.3450     2.6070    -1.3480 ca         1 O33       0.348900
      6 C23         -8.1770     0.6400    -1.3220 ca         1 O33       0.150100
      7 C24         -8.1810     0.1190    -2.6360 ca         1 O33      -0.202000
      8 C25         -9.2340     0.4250    -3.5170 ca         1 O33      -0.073000
      9 C26        -10.2890     1.2500    -3.0980 ca         1 O33      -0.119000
     10 C21         -6.0300    -0.4770    -0.7750 c3         1 O33       0.074600
     11 C1          -5.0320    -0.6310     0.3960 c          1 O33       0.614100
     12 N5         -11.3960     3.1360    -0.1020 nb         1 O33      -0.655000
     13 O6          -7.1580     0.3610    -0.4300 os         1 O33      -0.312100
     14 O5          -5.1890    -0.1080     1.4940 o          1 O33      -0.570100
     15 N1          -3.9220    -1.3980     0.1040 ns         1 O33      -0.500900
     16 C2          -2.8290    -1.7180     1.0580 c3         1 O33       0.048700
     17 C20         -2.9140    -3.1890     1.5350 c3         1 O33       0.044600
     18 S2          -4.5010    -3.5400     2.4270 ss         1 O33      -0.416000
     19 C22         -4.2660    -5.3360     2.8030 c3         1 O33       0.035900
     20 C3          -1.4490    -1.4400     0.4060 c          1 O33       0.585100
     21 O3          -1.2880    -1.3470    -0.8060 o          1 O33      -0.610100
     22 C6           3.4390    -1.6700     0.9780 c          1 O33       0.580100
     23 N2          -0.4020    -1.2990     1.2940 ns         1 O33      -0.484900
     24 O2           4.3310    -1.3260     1.7460 o          1 O33      -0.608100
     25 C5           1.9950    -1.9240     1.5200 c3         1 O33       0.090300
     26 C8           0.2780     1.5290     0.6250 ca         1 O33      -0.084300
     27 C7           1.2330     0.5660     1.3220 c3         1 O33      -0.051100
     28 C11         -1.5040     3.2730    -0.6910 ca         1 O33      -0.115000
     29 C4           0.9680    -0.9120     0.9300 c3         1 O33       0.087700
     30 O1           1.9530    -1.8930     2.9730 oh         1 O33      -0.652000
     31 C9          -0.8870     1.9800     1.2780 ca         1 O33      -0.099500
     32 C13          0.5460     1.9590    -0.6890 ca         1 O33      -0.099500
     33 C10         -1.7760     2.8480     0.6210 ca         1 O33      -0.116000
     34 C12         -0.3430     2.8290    -1.3450 ca         1 O33      -0.116000
     35 C17          5.3150     0.1860    -0.7170 c          1 O33       0.610100
     36 N3           3.6820    -1.7720    -0.4100 n          1 O33      -0.384800
     37 O4           4.5070     1.0880    -0.5280 o          1 O33      -0.599100
     38 C16          4.9950    -1.3190    -0.9860 c5         1 O33       0.025700
     39 C15          4.8850    -1.5660    -2.5350 c5         1 O33       0.105000
     40 C14          2.9170    -2.7200    -1.2580 c5         1 O33       0.238000
     41 C18          4.0140    -0.5420    -3.3160 c3         1 O33      -0.084600
     42 C19          6.2600    -1.6900    -3.2360 c3         1 O33      -0.084600
     43 S1           4.0710    -3.2160    -2.6120 ss         1 O33      -0.426000
     44 N4           6.6810     0.3680    -0.6940 ns         1 O33      -0.478900
     45 O7           9.2460     0.4400    -1.3200 oh         1 O33      -0.662000
     46 C32          7.2130     1.7120    -0.4580 c5         1 O33       0.161000
     47 C33          7.6180     1.9900     0.9670 ca         1 O33      -0.111300
     48 C37          6.8480     1.7730     2.1230 ca         1 O33      -0.072000
     49 C38          7.3950     2.1060     3.3770 ca         1 O33      -0.111000
     50 C36          8.6350     1.7390    -1.1950 c5         1 O33       0.155300
     51 C34          8.8880     2.5240     1.0510 ca         1 O33      -0.081300
     52 C40          9.4480     2.8660     2.2920 ca         1 O33      -0.098000
     53 C39          8.6930     2.6520     3.4620 ca         1 O33      -0.106000
     54 C35          9.5310     2.6870    -0.3030 c5         1 O33      -0.065100
     55 H30        -10.4450     3.2780     1.7430 h4         1 O33       0.021100
     56 H31         -8.5180     1.8290     1.1240 ha         1 O33       0.145000
     57 H29        -12.1720     2.8590    -2.0110 h4         1 O33       0.018100
     58 H24         -7.3810    -0.5220    -2.9930 ha         1 O33       0.116000
     59 H25         -9.2320     0.0200    -4.5270 ha         1 O33       0.114000
     60 H26        -11.0990     1.4810    -3.7870 ha         1 O33       0.120000
     61 H211        -5.4780    -0.0530    -1.6230 h1         1 O33       0.057200
     62 H212        -6.3660    -1.4840    -1.0520 h1         1 O33       0.057200
     63 HN1         -3.8470    -1.7550    -0.8430 hn         1 O33       0.329500
     64 H2          -2.9030    -1.0590     1.9330 h1         1 O33       0.099700
     65 H201        -2.8340    -3.8600     0.6690 h1         1 O33       0.075200
     66 H202        -2.0770    -3.4070     2.2110 h1         1 O33       0.075200
     67 H221        -4.1500    -5.9010     1.8700 h1         1 O33       0.062033
     68 H222        -3.3700    -5.4740     3.4220 h1         1 O33       0.062033
     69 H223        -5.1390    -5.7180     3.3470 h1         1 O33       0.062033
     70 HN2         -0.6090    -1.4130     2.2800 hn         1 O33       0.333500
     71 H5           1.7070    -2.9250     1.1770 h1         1 O33       0.080700
     72 H71          1.1510     0.6760     2.4100 hc         1 O33       0.068700
     73 H72          2.2650     0.8340     1.0700 hc         1 O33       0.068700
     74 H11         -2.1920     3.9450    -1.1990 ha         1 O33       0.108000
     75 H4           1.0540    -0.9620    -0.1630 h1         1 O33       0.089700
     76 HO1          2.8600    -1.6340     3.2640 ho         1 O33       0.476000
     77 H9          -1.1080     1.6530     2.2910 ha         1 O33       0.121000
     78 H13          1.4410     1.6160    -1.2040 ha         1 O33       0.121000
     79 H10         -2.6760     3.1900     1.1280 ha         1 O33       0.114500
     80 H12         -0.1310     3.1570    -2.3600 ha         1 O33       0.114500
     81 H16          5.8030    -1.9260    -0.5560 h1         1 O33       0.085700
     82 H141         2.0520    -2.1830    -1.6670 h2         1 O33       0.086200
     83 H142         2.6340    -3.5950    -0.6600 h2         1 O33       0.086200
     84 H181         4.5040     0.4370    -3.3800 hc         1 O33       0.053200
     85 H182         3.8320    -0.8810    -4.3430 hc         1 O33       0.053200
     86 H183         3.0370    -0.3860    -2.8440 hc         1 O33       0.053200
     87 H191         6.9010    -2.4220    -2.7300 hc         1 O33       0.053200
     88 H192         6.1460    -2.0190    -4.2760 hc         1 O33       0.053200
     89 H193         6.7950    -0.7330    -3.2530 hc         1 O33       0.053200
     90 HN4          7.2880    -0.4240    -0.8700 hn         1 O33       0.335500
     91 HO7         10.1260     0.5790    -1.7350 ho         1 O33       0.447000
     92 H32          6.5640     2.5140    -0.8390 h1         1 O33       0.090700
     93 H37          5.8470     1.3540     2.0520 ha         1 O33       0.135000
     94 H38          6.8140     1.9440     4.2820 ha         1 O33       0.115000
     95 H36          8.5200     2.1690    -2.2000 h1         1 O33       0.044700
     96 H40         10.4480     3.2890     2.3500 ha         1 O33       0.112000
     97 H39          9.1120     2.9100     4.4320 ha         1 O33       0.112000
     98 H351         9.4690     3.7260    -0.6440 hc         1 O33       0.059700
     99 H352        10.5900     2.4030    -0.3110 hc         1 O33       0.059700
@<TRIPOS>BOND
     1     1     2 ar  
     2     1    12 ar  
     3     1    55 1   
     4     2     3 ar  
     5     2    56 1   
     6     3     4 ar  
     7     3     6 ar  
     8     4     5 ar  
     9     4     9 ar  
    10     5    12 ar  
    11     5    57 1   
    12     6     7 ar  
    13     6    13 1   
    14     7     8 ar  
    15     7    58 1   
    16     8     9 ar  
    17     8    59 1   
    18     9    60 1   
    19    10    11 1   
    20    10    13 1   
    21    10    61 1   
    22    10    62 1   
    23    11    14 2   
    24    11    15 1   
    25    15    16 1   
    26    15    63 1   
    27    16    17 1   
    28    16    20 1   
    29    16    64 1   
    30    17    18 1   
    31    17    65 1   
    32    17    66 1   
    33    18    19 1   
    34    19    67 1   
    35    19    68 1   
    36    19    69 1   
    37    20    21 2   
    38    20    23 1   
    39    22    24 2   
    40    22    25 1   
    41    22    36 1   
    42    23    29 1   
    43    23    70 1   
    44    25    29 1   
    45    25    30 1   
    46    25    71 1   
    47    26    27 1   
    48    26    31 ar  
    49    26    32 ar  
    50    27    29 1   
    51    27    72 1   
    52    27    73 1   
    53    28    33 ar  
    54    28    34 ar  
    55    28    74 1   
    56    29    75 1   
    57    30    76 1   
    58    31    33 ar  
    59    31    77 1   
    60    32    34 ar  
    61    32    78 1   
    62    33    79 1   
    63    34    80 1   
    64    35    37 2   
    65    35    38 1   
    66    35    44 1   
    67    36    38 1   
    68    36    40 1   
    69    38    39 1   
    70    38    81 1   
    71    39    41 1   
    72    39    42 1   
    73    39    43 1   
    74    40    43 1   
    75    40    82 1   
    76    40    83 1   
    77    41    84 1   
    78    41    85 1   
    79    41    86 1   
    80    42    87 1   
    81    42    88 1   
    82    42    89 1   
    83    44    46 1   
    84    44    90 1   
    85    45    50 1   
    86    45    91 1   
    87    46    47 1   
    88    46    50 1   
    89    46    92 1   
    90    47    48 ar  
    91    47    51 ar  
    92    48    49 ar  
    93    48    93 1   
    94    49    53 ar  
    95    49    94 1   
    96    50    54 1   
    97    50    95 1   
    98    51    52 ar  
    99    51    54 1   
   100    52    53 ar  
   101    52    96 1   
   102    53    97 1   
   103    54    98 1   
   104    54    99 1   
@<TRIPOS>SUBSTRUCTURE
     1 O33         1 TEMP              0 ****  ****    0 ROOT
