@<TRIPOS>MOLECULE
O33
   99   104     1     0     0
SMALL
bcc


@<TRIPOS>ATOM
      1 C30         -6.6500     4.3820     1.8210 ca         1 O33       0.374200
      2 C31         -6.3440     3.1390     1.3420 ca         1 O33      -0.200300
      3 C28         -6.9680     2.6890     0.1590 ca         1 O33      -0.031000
      4 C27         -7.8860     3.5560    -0.4730 ca         1 O33      -0.134300
      5 C29         -8.1120     4.8160     0.1320 ca         1 O33       0.414200
      6 C23         -6.7150     1.4160    -0.4270 ca         1 O33       0.150100
      7 C24         -7.3550     1.0550    -1.5860 ca         1 O33      -0.220000
      8 C25         -8.2710     1.9380    -2.1980 ca         1 O33      -0.091000
      9 C26         -8.5400     3.1640    -1.6630 ca         1 O33      -0.137000
     10 C21         -5.4290    -0.5620    -0.3220 c3         1 O33       0.051400
     11 C1          -4.3990    -1.1760     0.6120 c          1 O33       0.681100
     12 N5          -7.5270     5.2200     1.2260 nb         1 O33      -0.655000
     13 O6          -5.8290     0.6570     0.2390 os         1 O33      -0.288900
     14 O5          -4.2170    -0.7680     1.7420 o          1 O33      -0.570100
     15 N1          -3.7570    -2.2270     0.0680 ns         1 O33      -0.567900
     16 C2          -2.7470    -2.9890     0.7640 c3         1 O33       0.048700
     17 C20         -2.9660    -4.4840     0.5910 c3         1 O33      -0.003300
     18 S2          -4.6270    -4.9280     1.1710 ss         1 O33      -0.320200
     19 C22         -4.4440    -6.7240     1.2020 c3         1 O33      -0.012000
     20 C3          -1.3720    -2.6000     0.2170 c          1 O33       0.652100
     21 O3          -1.0580    -2.8750    -0.9290 o          1 O33      -0.610100
     22 C6           3.1650    -1.5780     1.2230 c          1 O33       0.647100
     23 N2          -0.5840    -1.9480     1.0830 ns         1 O33      -0.551900
     24 O2           3.7770    -0.7580     1.8950 o          1 O33      -0.608100
     25 C5           1.7780    -2.0240     1.6730 c3         1 O33       0.067100
     26 C8          -0.3030     0.6690    -0.1980 ca         1 O33      -0.084300
     27 C7           0.6900     0.1200     0.7850 c3         1 O33      -0.051100
     28 C11         -2.1610     1.6160    -2.0630 ca         1 O33      -0.133000
     29 C4           0.7130    -1.4140     0.7420 c3         1 O33       0.087700
     30 O1           1.5690    -1.6570     3.0020 oh         1 O33      -0.589800
     31 C9          -1.5900     1.0210     0.1980 ca         1 O33      -0.117500
     32 C13          0.0410     0.7950    -1.5420 ca         1 O33      -0.117500
     33 C10         -2.5120     1.4940    -0.7260 ca         1 O33      -0.134000
     34 C12         -0.8790     1.2640    -2.4700 ca         1 O33      -0.134000
     35 C17          4.8430    -0.0500    -0.6660 c          1 O33       0.677100
     36 N3           3.6520    -2.0540     0.0650 n          1 O33      -0.451800
     37 O4           3.8140     0.4750    -1.0550 o          1 O33      -0.599100
     38 C16          4.9320    -1.5520    -0.3990 c5         1 O33       0.025700
     39 C15          5.3320    -2.3430    -1.6730 c5         1 O33       0.057100
     40 C14          3.1260    -3.1870    -0.6730 c5         1 O33       0.190100
     41 C18          4.7660    -1.7700    -2.9690 c3         1 O33      -0.084600
     42 C19          6.8430    -2.4940    -1.7800 c3         1 O33      -0.084600
     43 S1           4.5930    -3.9910    -1.3500 ss         1 O33      -0.330200
     44 N4           6.0030     0.5990    -0.4920 ns         1 O33      -0.545900
     45 O7           8.4900     1.5660    -0.5690 oh         1 O33      -0.599800
     46 C32          6.1670     2.0070    -0.7220 c5         1 O33       0.161000
     47 C33          6.0480     2.8830     0.5020 ca         1 O33      -0.111300
     48 C37          5.2150     2.7450     1.5980 ca         1 O33      -0.090000
     49 C38          5.2750     3.7070     2.6030 ca         1 O33      -0.129000
     50 C36          7.5630     2.3690    -1.2620 c5         1 O33       0.132100
     51 C34          6.9280     3.9540     0.3940 ca         1 O33      -0.081300
     52 C40          6.9860     4.9130     1.3920 ca         1 O33      -0.116000
     53 C39          6.1520     4.7810     2.4990 ca         1 O33      -0.124000
     54 C35          7.7060     3.8520    -0.8890 c5         1 O33      -0.065100
     55 H30         -6.1810     4.7480     2.7270 h4         1 O33       0.021100
     56 H31         -5.6340     2.5170     1.8680 ha         1 O33       0.163000
     57 H29         -8.8140     5.4990    -0.3380 h4         1 O33       0.018100
     58 H24         -7.1760     0.0930    -2.0480 ha         1 O33       0.134000
     59 H25         -8.7610     1.6220    -3.1100 ha         1 O33       0.132000
     60 H26         -9.2430     3.8380    -2.1340 ha         1 O33       0.138000
     61 H211        -5.0020    -0.4220    -1.3210 h1         1 O33       0.057200
     62 H212        -6.2740    -1.2560    -0.4220 h1         1 O33       0.057200
     63 HN1         -3.9240    -2.4560    -0.9010 hn         1 O33       0.329500
     64 H2          -2.8230    -2.7400     1.8230 h1         1 O33       0.099700
     65 H201        -2.8470    -4.7770    -0.4540 h1         1 O33       0.075200
     66 H202        -2.2240    -5.0240     1.1810 h1         1 O33       0.075200
     67 H221        -4.2190    -7.1150     0.2100 h1         1 O33       0.062033
     68 H222        -3.6620    -7.0290     1.8970 h1         1 O33       0.062033
     69 H223        -5.3910    -7.1450     1.5340 h1         1 O33       0.062033
     70 HN2         -0.9450    -1.7370     2.0010 hn         1 O33       0.333500
     71 H5           1.6910    -3.1140     1.6110 h1         1 O33       0.080700
     72 H71          0.4500     0.4570     1.7960 hc         1 O33       0.068700
     73 H72          1.6850     0.5000     0.5440 hc         1 O33       0.068700
     74 H11         -2.8780     1.9870    -2.7840 ha         1 O33       0.126000
     75 H4           0.9180    -1.7280    -0.2830 h1         1 O33       0.089700
     76 HO1          2.1820    -0.9350     3.2030 ho         1 O33       0.437000
     77 H9          -1.8770     0.9270     1.2380 ha         1 O33       0.139000
     78 H13          1.0420     0.5280    -1.8610 ha         1 O33       0.139000
     79 H10         -3.5040     1.7750    -0.3970 ha         1 O33       0.132500
     80 H12         -0.5950     1.3590    -3.5100 ha         1 O33       0.132500
     81 H16          5.6890    -1.7460     0.3670 h1         1 O33       0.085700
     82 H141         2.4550    -2.8770    -1.4750 h2         1 O33       0.086200
     83 H142         2.6020    -3.8920    -0.0320 h2         1 O33       0.086200
     84 H181         5.2110    -0.7990    -3.1930 hc         1 O33       0.053200
     85 H182         5.0060    -2.4400    -3.7930 hc         1 O33       0.053200
     86 H183         3.6850    -1.6410    -2.9400 hc         1 O33       0.053200
     87 H191         7.2770    -2.9010    -0.8670 hc         1 O33       0.053200
     88 H192         7.1040    -3.1540    -2.6070 hc         1 O33       0.053200
     89 H193         7.3090    -1.5280    -1.9810 hc         1 O33       0.053200
     90 HN4          6.7760     0.1170    -0.0590 hn         1 O33       0.335500
     91 HO7          9.3610     1.6980    -0.9540 ho         1 O33       0.408000
     92 H32          5.4230     2.3180    -1.4600 h1         1 O33       0.090700
     93 H37          4.5400     1.9010     1.6850 ha         1 O33       0.153000
     94 H38          4.6390     3.6150     3.4740 ha         1 O33       0.133000
     95 H36          7.6250     2.2060    -2.3430 h1         1 O33       0.044700
     96 H40          7.6750     5.7460     1.3230 ha         1 O33       0.130000
     97 H39          6.1920     5.5180     3.2920 ha         1 O33       0.130000
     98 H351         7.2510     4.4770    -1.6650 hc         1 O33       0.059700
     99 H352         8.7490     4.1620    -0.8020 hc         1 O33       0.059700
@<TRIPOS>BOND
     1     1     2 ar  
     2     1    12 ar  
     3     1    55 1   
     4     2     3 ar  
     5     2    56 1   
     6     3     4 ar  
     7     3     6 ar  
     8     4     5 ar  
     9     4     9 ar  
    10     5    12 ar  
    11     5    57 1   
    12     6     7 ar  
    13     6    13 1   
    14     7     8 ar  
    15     7    58 1   
    16     8     9 ar  
    17     8    59 1   
    18     9    60 1   
    19    10    11 1   
    20    10    13 1   
    21    10    61 1   
    22    10    62 1   
    23    11    14 2   
    24    11    15 1   
    25    15    16 1   
    26    15    63 1   
    27    16    17 1   
    28    16    20 1   
    29    16    64 1   
    30    17    18 1   
    31    17    65 1   
    32    17    66 1   
    33    18    19 1   
    34    19    67 1   
    35    19    68 1   
    36    19    69 1   
    37    20    21 2   
    38    20    23 1   
    39    22    24 2   
    40    22    25 1   
    41    22    36 1   
    42    23    29 1   
    43    23    70 1   
    44    25    29 1   
    45    25    30 1   
    46    25    71 1   
    47    26    27 1   
    48    26    31 ar  
    49    26    32 ar  
    50    27    29 1   
    51    27    72 1   
    52    27    73 1   
    53    28    33 ar  
    54    28    34 ar  
    55    28    74 1   
    56    29    75 1   
    57    30    76 1   
    58    31    33 ar  
    59    31    77 1   
    60    32    34 ar  
    61    32    78 1   
    62    33    79 1   
    63    34    80 1   
    64    35    37 2   
    65    35    38 1   
    66    35    44 1   
    67    36    38 1   
    68    36    40 1   
    69    38    39 1   
    70    38    81 1   
    71    39    41 1   
    72    39    42 1   
    73    39    43 1   
    74    40    43 1   
    75    40    82 1   
    76    40    83 1   
    77    41    84 1   
    78    41    85 1   
    79    41    86 1   
    80    42    87 1   
    81    42    88 1   
    82    42    89 1   
    83    44    46 1   
    84    44    90 1   
    85    45    50 1   
    86    45    91 1   
    87    46    47 1   
    88    46    50 1   
    89    46    92 1   
    90    47    48 ar  
    91    47    51 ar  
    92    48    49 ar  
    93    48    93 1   
    94    49    53 ar  
    95    49    94 1   
    96    50    54 1   
    97    50    95 1   
    98    51    52 ar  
    99    51    54 1   
   100    52    53 ar  
   101    52    96 1   
   102    53    97 1   
   103    54    98 1   
   104    54    99 1   
@<TRIPOS>SUBSTRUCTURE
     1 O33         1 TEMP              0 ****  ****    0 ROOT
