@<TRIPOS>MOLECULE
O34
   57    60     1     0     0
SMALL
No Charge or Current Charge


@<TRIPOS>ATOM
      1 N1          -2.1960    -0.2020    -0.6360 n2         1 O34      -0.628900
      2 N2          -0.0300    -1.6640    -2.2260 n7         1 O34      -0.858400
      3 N3           1.8150     0.1240     1.0530 n2         1 O34      -0.518900
      4 O2           3.6650    -2.4890    -1.7780 oh         1 O34      -0.678000
      5 S1          -2.4690     2.4210    -0.3420 ss         1 O34      -0.365200
      6 S2           0.5760     0.5120    -3.6680 ss         1 O34      -0.528000
      7 S3           4.2860    -0.2510     0.1530 ss         1 O34      -0.514200
      8 C1          -4.6560    -0.9450     0.7710 ca         1 O34       0.221100
      9 C2          -5.8420    -1.2280     1.4630 ca         1 O34      -0.182000
     10 C3          -6.5320    -0.2120     2.1390 ca         1 O34      -0.052000
     11 C4          -6.0250     1.0940     2.1210 ca         1 O34      -0.178000
     12 C5          -4.8380     1.3860     1.4300 ca         1 O34      -0.029000
     13 C6          -4.1320     0.3730     0.7340 ca         1 O34      -0.249900
     14 C7          -2.8610     0.7110     0.0040 ce         1 O34       0.549800
     15 C8          -1.6460     1.8030    -1.8670 c5         1 O34       0.041600
     16 C9          -1.0650     0.4530    -1.3770 c5         1 O34       0.121500
     17 C10         -0.6890    -0.3940    -2.6610 c5         1 O34       0.371500
     18 C11          1.8760    -0.1240    -2.5370 c5         1 O34       0.065600
     19 C12          1.4630    -1.6110    -2.3920 c5         1 O34       0.160500
     20 C13          2.2870    -2.4810    -1.3610 c3         1 O34       0.196300
     21 C14          2.1910    -2.1910     0.1960 c3         1 O34      -0.079300
     22 C15          0.7460    -2.4880     0.7140 c3         1 O34      -0.078600
     23 C16          3.1160    -3.1830     0.9730 c3         1 O34      -0.078600
     24 C17          2.6160    -0.7530     0.5450 c2         1 O34       0.465200
     25 C18          3.7400     1.4930     0.3360 c5         1 O34       0.080600
     26 C19          2.5690     1.4020     1.3590 c5         1 O34      -0.049800
     27 C20          1.5720     2.5810     1.2090 c3         1 O34      -0.052100
     28 C21          3.2170     1.4220     2.8080 c          1 O34       0.747000
     29 H1          -0.4020    -2.4390    -2.7860 hn         1 O34       0.427000
     30 H5          -3.2170    -1.5680    -0.2750 ho         1 O34       0.532000
     31 H6           4.1200    -1.7970    -1.2410 ho         1 O34       0.463000
     32 H10         -6.5530     1.8850     2.6480 ha         1 O34       0.111000
     33 H11         -4.4750     2.4110     1.4500 ha         1 O34       0.119000
     34 H12         -2.3940     1.6640    -2.6600 h1         1 O34       0.083700
     35 H13         -0.8790     2.5080    -2.2150 h1         1 O34       0.083700
     36 H14         -0.1990     0.6000    -0.7190 h1         1 O34       0.143700
     37 H15         -1.5880    -0.5820    -3.2640 h2         1 O34       0.069700
     38 H16          2.8770    -0.0070    -2.9730 h1         1 O34       0.092200
     39 H17          1.8360     0.4260    -1.5940 h1         1 O34       0.092200
     40 H18          1.6730    -2.0720    -3.3670 h1         1 O34       0.036700
     41 H19          1.9000    -3.5010    -1.4930 h1         1 O34       0.060700
     42 H20          0.4130    -3.4870     0.4070 hc         1 O34       0.044533
     43 H21          0.7060    -2.4460     1.8100 hc         1 O34       0.044533
     44 H22          0.0170    -1.7620     0.3450 hc         1 O34       0.044533
     45 H23          4.1730    -3.0690     0.7050 hc         1 O34       0.044533
     46 H24          3.0390    -3.0190     2.0550 hc         1 O34       0.044533
     47 H25          2.8330    -4.2230     0.7690 hc         1 O34       0.044533
     48 H27          4.5640     2.1410     0.6640 h1         1 O34       0.067700
     49 H28          3.3870     1.8600    -0.6380 h1         1 O34       0.067700
     50 H29          0.7640     2.5110     1.9470 hc         1 O34       0.029700
     51 H30          2.0710     3.5470     1.3510 hc         1 O34       0.029700
     52 H31          1.1140     2.5920     0.2120 hc         1 O34       0.029700
     53 H8          -6.2290    -2.2440     1.4780 ha         1 O34       0.124000
     54 O1          -4.0260    -1.9710     0.1380 oh         1 O34      -0.550100
     55 O3           3.0790     0.4610     3.5570 o          1 O34      -0.691000
     56 O4           3.8140     2.4270     3.1740 o          1 O34      -0.691000
     57 H9          -7.4510    -0.4370     2.6760 ha         1 O34       0.104000
@<TRIPOS>BOND
     1     1    14 2   
     2     1    16 1   
     3     2    17 1   
     4     2    19 1   
     5     2    29 1   
     6     3    24 2   
     7     3    26 1   
     8     4    20 1   
     9     4    31 1   
    10     5    14 1   
    11     5    15 1   
    12     6    17 1   
    13     6    18 1   
    14     7    24 1   
    15     7    25 1   
    16     8     9 ar  
    17     8    13 ar  
    18     8    54 1   
    19     9    10 ar  
    20     9    53 1   
    21    10    11 ar  
    22    10    57 1   
    23    11    12 ar  
    24    11    32 1   
    25    12    13 ar  
    26    12    33 1   
    27    13    14 1   
    28    15    16 1   
    29    15    34 1   
    30    15    35 1   
    31    16    17 1   
    32    16    36 1   
    33    17    37 1   
    34    18    19 1   
    35    18    38 1   
    36    18    39 1   
    37    19    20 1   
    38    19    40 1   
    39    20    21 1   
    40    20    41 1   
    41    21    22 1   
    42    21    23 1   
    43    21    24 1   
    44    22    42 1   
    45    22    43 1   
    46    22    44 1   
    47    23    45 1   
    48    23    46 1   
    49    23    47 1   
    50    25    26 1   
    51    25    48 1   
    52    25    49 1   
    53    26    27 1   
    54    26    28 1   
    55    27    50 1   
    56    27    51 1   
    57    27    52 1   
    58    28    55 1   
    59    28    56 1   
    60    30    54 1   
@<TRIPOS>SUBSTRUCTURE
     1 O34         1 TEMP              0 ****  ****    0 ROOT
