@<TRIPOS>MOLECULE
O34
   57    60     1     0     0
SMALL
abcg2


@<TRIPOS>ATOM
      1 N1          -2.0470    -0.0110    -0.6680 n2         1 O34      -0.628900
      2 N2          -0.0710    -1.5090    -2.2530 n7         1 O34      -0.858400
      3 N3           1.6300     0.1770     0.8320 n2         1 O34      -0.518900
      4 O2           3.4300    -2.6460    -1.7340 oh         1 O34      -0.678000
      5 S1          -2.5500     2.5240    -0.4310 ss         1 O34      -0.365200
      6 S2           0.7040     0.6350    -3.5970 ss         1 O34      -0.528000
      7 S3           4.1400    -0.3900     0.4470 ss         1 O34      -0.514200
      8 C1          -4.0930    -1.0060     1.0250 ca         1 O34       0.221100
      9 C2          -5.1370    -1.4120     1.8620 ca         1 O34      -0.182000
     10 C3          -6.0290    -0.4880     2.3720 ca         1 O34      -0.052000
     11 C4          -5.9110     0.8660     2.0670 ca         1 O34      -0.178000
     12 C5          -4.8810     1.2780     1.2450 ca         1 O34      -0.029000
     13 C6          -3.9610     0.3680     0.7180 ca         1 O34      -0.249900
     14 C7          -2.8590     0.8060    -0.1300 ce         1 O34       0.549800
     15 C8          -1.3600     2.0540    -1.7240 c5         1 O34       0.041600
     16 C9          -0.9510     0.6150    -1.3790 c5         1 O34       0.121500
     17 C10         -0.5950    -0.2170    -2.6120 c5         1 O34       0.371500
     18 C11          1.9580    -0.2300    -2.6160 c5         1 O34       0.065600
     19 C12          1.3760    -1.6330    -2.4180 c5         1 O34       0.160500
     20 C13          2.0770    -2.5010    -1.3440 c3         1 O34       0.196300
     21 C14          1.9320    -2.1730     0.1740 c3         1 O34      -0.079300
     22 C15          0.4950    -2.3750     0.6570 c3         1 O34      -0.078600
     23 C16          2.8070    -3.1610     0.9650 c3         1 O34      -0.078600
     24 C17          2.3780    -0.7750     0.5070 c2         1 O34       0.465200
     25 C18          3.7150     1.3670     0.5500 c5         1 O34       0.080600
     26 C19          2.3300     1.3810     1.2200 c5         1 O34      -0.049800
     27 C20          1.5550     2.6170     0.7850 c3         1 O34      -0.052100
     28 C21          2.5070     1.3890     2.7920 c          1 O34       0.747000
     29 H1          -0.5370    -2.2310    -2.7800 hn         1 O34       0.427000
     30 H5          -2.6000    -1.4940    -0.0300 ho         1 O34       0.532000
     31 H6           3.8990    -1.8220    -1.5480 ho         1 O34       0.463000
     32 H10         -6.6150     1.5840     2.4640 ha         1 O34       0.111000
     33 H11         -4.7910     2.3300     0.9980 ha         1 O34       0.119000
     34 H12         -1.8490     2.1220    -2.6970 h1         1 O34       0.083700
     35 H13         -0.5170     2.7400    -1.7030 h1         1 O34       0.083700
     36 H14         -0.0950     0.6180    -0.6940 h1         1 O34       0.143700
     37 H15         -1.4810    -0.3170    -3.2400 h2         1 O34       0.069700
     38 H16          2.8910    -0.2540    -3.1750 h1         1 O34       0.092200
     39 H17          2.1210     0.3030    -1.6830 h1         1 O34       0.092200
     40 H18          1.5760    -2.1650    -3.3540 h1         1 O34       0.036700
     41 H19          1.6450    -3.5030    -1.4480 h1         1 O34       0.060700
     42 H20          0.1740    -3.3990     0.4520 hc         1 O34       0.044533
     43 H21          0.4490    -2.2090     1.7340 hc         1 O34       0.044533
     44 H22         -0.2080    -1.7080     0.1770 hc         1 O34       0.044533
     45 H23          3.8690    -3.0880     0.7360 hc         1 O34       0.044533
     46 H24          2.6830    -2.9850     2.0340 hc         1 O34       0.044533
     47 H25          2.4980    -4.1860     0.7510 hc         1 O34       0.044533
     48 H27          4.4430     1.9130     1.1460 h1         1 O34       0.067700
     49 H28          3.6910     1.7850    -0.4610 h1         1 O34       0.067700
     50 H29          0.5340     2.5920     1.1700 hc         1 O34       0.029700
     51 H30          2.0470     3.5130     1.1620 hc         1 O34       0.029700
     52 H31          1.4960     2.6840    -0.3050 hc         1 O34       0.029700
     53 H8          -5.2360    -2.4630     2.1010 ha         1 O34       0.124000
     54 O1          -3.2710    -1.9330     0.5550 oh         1 O34      -0.550100
     55 O3           1.9660     0.4780     3.4240 o          1 O34      -0.691000
     56 O4           3.1820     2.3410     3.2140 o          1 O34      -0.691000
     57 H9          -6.8310    -0.8290     3.0140 ha         1 O34       0.104000
@<TRIPOS>BOND
     1     1    14 2   
     2     1    16 1   
     3     2    17 1   
     4     2    19 1   
     5     2    29 1   
     6     3    24 2   
     7     3    26 1   
     8     4    20 1   
     9     4    31 1   
    10     5    14 1   
    11     5    15 1   
    12     6    17 1   
    13     6    18 1   
    14     7    24 1   
    15     7    25 1   
    16     8     9 ar  
    17     8    13 ar  
    18     8    54 1   
    19     9    10 ar  
    20     9    53 1   
    21    10    11 ar  
    22    10    57 1   
    23    11    12 ar  
    24    11    32 1   
    25    12    13 ar  
    26    12    33 1   
    27    13    14 1   
    28    15    16 1   
    29    15    34 1   
    30    15    35 1   
    31    16    17 1   
    32    16    36 1   
    33    17    37 1   
    34    18    19 1   
    35    18    38 1   
    36    18    39 1   
    37    19    20 1   
    38    19    40 1   
    39    20    21 1   
    40    20    41 1   
    41    21    22 1   
    42    21    23 1   
    43    21    24 1   
    44    22    42 1   
    45    22    43 1   
    46    22    44 1   
    47    23    45 1   
    48    23    46 1   
    49    23    47 1   
    50    25    26 1   
    51    25    48 1   
    52    25    49 1   
    53    26    27 1   
    54    26    28 1   
    55    27    50 1   
    56    27    51 1   
    57    27    52 1   
    58    28    55 1   
    59    28    56 1   
    60    30    54 1   
@<TRIPOS>SUBSTRUCTURE
     1 O34         1 TEMP              0 ****  ****    0 ROOT
