@<TRIPOS>MOLECULE
O35
   66    69     1     0     0
SMALL
No Charge or Current Charge


@<TRIPOS>ATOM
      1 C1         192.8790    12.9300    72.2270 ca         1 O35      -0.052300
      2 C2         193.7080    11.8630    71.8380 ca         1 O35      -0.136000
      3 C3         193.1950    10.5560    71.7500 ca         1 O35      -0.055300
      4 C7         188.6030    11.7990    73.2890 c          1 O35       0.618100
      5 C8         187.2860    11.0420    73.4080 c3         1 O35      -0.204700
      6 C9         187.0800    10.6230    74.8520 ca         1 O35       0.341300
      7 C10        187.8520     9.5840    75.4450 ca         1 O35       0.115100
      8 C11        187.6060     9.2450    76.7940 ca         1 O35      -0.177000
      9 C12        186.6110     9.9510    77.4890 ca         1 O35       0.080100
     10 C13        185.8800    10.9570    76.8120 ca         1 O35       0.305900
     11 C14        185.8800    10.5270    79.7220 ca         1 O35       0.195100
     12 C15        186.4670    11.7940    79.8310 ca         1 O35      -0.271000
     13 C16        185.9730    12.6870    80.7850 ca         1 O35       0.392900
     14 C19        184.2050     8.9260    80.5290 ca         1 O35      -0.039000
     15 C20        183.1500     8.6220    81.4030 ca         1 O35      -0.144000
     16 C21        182.7060     9.5700    82.3350 ca         1 O35       0.163100
     17 C22        183.3270    10.8350    82.3920 ca         1 O35      -0.204000
     18 C24        189.6560     7.9000    75.2340 c3         1 O35       0.145900
     19 C27        193.9020     9.8490    68.9000 c3         1 O35       0.148600
     20 O          188.7040    12.9610    73.6630 o          1 O35      -0.578100
     21 C5         190.9980    11.3800    72.4500 ca         1 O35      -0.019000
     22 C4         191.8410    10.3250    72.0560 ca         1 O35      -0.151000
     23 C25        194.0960     9.3960    71.3270 c3         1 O35       0.209100
     24 N3         193.7760     8.8470    69.9850 n3         1 O35      -0.714600
     25 C26        194.5270     7.6060    69.6920 c3         1 O35       0.148600
     26 C6         191.5260    12.6870    72.5290 ca         1 O35      -0.134000
     27 C          193.4380    14.3430    72.3090 c3         1 O35      -0.047800
     28 N1         186.1060    11.2920    75.5180 nb         1 O35      -0.628000
     29 O3         188.8150     8.9330    74.6900 os         1 O35      -0.333100
     30 O1         186.3520     9.6180    78.8020 os         1 O35      -0.244200
     31 C18        184.8240    10.1910    80.5880 ca         1 O35      -0.134000
     32 O2         181.6640     9.2150    83.1680 os         1 O35      -0.338100
     33 C23        181.1320    10.1110    84.1600 c3         1 O35       0.145900
     34 C17        184.3840    11.1560    81.5260 ca         1 O35       0.330000
     35 N2         184.9520    12.3790    81.6150 nb         1 O35      -0.692000
     36 H1         194.7530    12.0500    71.5980 ha         1 O35       0.110000
     37 H2         186.4730    11.7010    73.0840 hc         1 O35       0.080700
     38 H3         187.3030    10.1470    72.7770 hc         1 O35       0.080700
     39 H4         188.1580     8.4620    77.3050 ha         1 O35       0.141000
     40 H5         185.0850    11.5070    77.3150 h4         1 O35       0.041100
     41 H6         187.2990    12.0860    79.1970 ha         1 O35       0.140000
     42 H7         186.4070    13.6800    80.8950 h4         1 O35       0.019100
     43 H8         184.5330     8.1760    79.8130 ha         1 O35       0.130000
     44 H9         182.6720     7.6470    81.3580 ha         1 O35       0.130000
     45 H10        183.0020    11.5850    83.1040 ha         1 O35       0.137000
     46 H11        190.3500     7.5340    74.4680 h1         1 O35       0.048033
     47 H12        190.2490     8.2830    76.0740 h1         1 O35       0.048033
     48 H13        189.0550     7.0510    75.5830 h1         1 O35       0.048033
     49 H14        193.2440    10.7090    69.0780 h1         1 O35       0.031867
     50 H15        194.9350    10.2150    68.8230 h1         1 O35       0.031867
     51 H16        193.6210     9.4100    67.9330 h1         1 O35       0.031867
     52 H17        189.3940    10.1060    72.5130 hn         1 O35       0.150000
     53 H18        191.4460     9.3140    71.9850 ha         1 O35       0.122000
     54 H19        193.9950     8.6040    72.0820 h1         1 O35       0.037700
     55 H20        195.1440     9.7250    71.3560 h1         1 O35       0.037700
     56 H22        194.3490     6.8510    70.4690 h1         1 O35       0.031867
     57 H23        194.2120     7.1800    68.7300 h1         1 O35       0.031867
     58 H24        195.6060     7.8030    69.6440 h1         1 O35       0.031867
     59 H25        190.9010    13.5270    72.8130 ha         1 O35       0.147000
     60 H26        193.2690    14.8840    71.3710 hc         1 O35       0.043367
     61 H27        192.9630    14.9130    73.1160 hc         1 O35       0.043367
     62 H28        194.5170    14.3370    72.5030 hc         1 O35       0.043367
     63 H29        180.3130     9.6290    84.7080 h1         1 O35       0.044700
     64 H30        181.9050    10.3950    84.8850 h1         1 O35       0.044700
     65 H31        180.7370    11.0220    83.6910 h1         1 O35       0.044700
     66 N          189.6430    11.0610    72.7380 ns         1 O35      -0.143000
@<TRIPOS>BOND
     1     1     2 ar  
     2     1    26 ar  
     3     1    27 1   
     4     2     3 ar  
     5     2    36 1   
     6     3    22 ar  
     7     3    23 1   
     8     4     5 1   
     9     4    20 2   
    10     4    66 1   
    11     5     6 1   
    12     5    37 1   
    13     5    38 1   
    14     6     7 ar  
    15     6    28 ar  
    16     7     8 ar  
    17     7    29 1   
    18     8     9 ar  
    19     8    39 1   
    20     9    10 ar  
    21     9    30 1   
    22    10    28 ar  
    23    10    40 1   
    24    11    12 ar  
    25    11    30 1   
    26    11    31 ar  
    27    12    13 ar  
    28    12    41 1   
    29    13    35 ar  
    30    13    42 1   
    31    14    15 ar  
    32    14    31 ar  
    33    14    43 1   
    34    15    16 ar  
    35    15    44 1   
    36    16    17 ar  
    37    16    32 1   
    38    17    34 ar  
    39    17    45 1   
    40    18    29 1   
    41    18    46 1   
    42    18    47 1   
    43    18    48 1   
    44    19    24 1   
    45    19    49 1   
    46    19    50 1   
    47    19    51 1   
    48    21    22 ar  
    49    21    26 ar  
    50    21    66 1   
    51    22    53 1   
    52    23    24 1   
    53    23    54 1   
    54    23    55 1   
    55    24    25 1   
    56    25    56 1   
    57    25    57 1   
    58    25    58 1   
    59    26    59 1   
    60    27    60 1   
    61    27    61 1   
    62    27    62 1   
    63    31    34 ar  
    64    32    33 1   
    65    33    63 1   
    66    33    64 1   
    67    33    65 1   
    68    34    35 ar  
    69    52    66 1   
@<TRIPOS>SUBSTRUCTURE
     1 O35         1 TEMP              0 ****  ****    0 ROOT
