@<TRIPOS>MOLECULE
O35
   66    69     1     0     0
SMALL
abcg2


@<TRIPOS>ATOM
      1 C1         193.1030    12.4890    72.9110 ca         1 O35      -0.052300
      2 C2         193.9400    11.7920    72.0460 ca         1 O35      -0.136000
      3 C3         193.5140    10.6180    71.4360 ca         1 O35      -0.055300
      4 C7         189.0950    10.6840    73.5400 c          1 O35       0.618100
      5 C8         187.8470     9.8250    73.4330 c3         1 O35      -0.204700
      6 C9         187.1120     9.7540    74.7360 ca         1 O35       0.341300
      7 C10        187.7330     9.1610    75.8510 ca         1 O35       0.115100
      8 C11        187.0320     9.0830    77.0440 ca         1 O35      -0.177000
      9 C12        185.7450     9.6000    77.0670 ca         1 O35       0.080100
     10 C13        185.2010    10.1700    75.9350 ca         1 O35       0.305900
     11 C14        185.0790    10.4840    79.1350 ca         1 O35       0.195100
     12 C15        185.8950    11.5830    79.0320 ca         1 O35      -0.271000
     13 C16        185.8690    12.5170    80.0800 ca         1 O35       0.392900
     14 C19        183.3800     9.2380    80.4690 ca         1 O35      -0.039000
     15 C20        182.6080     9.1550    81.5900 ca         1 O35      -0.144000
     16 C21        182.6670    10.1660    82.5810 ca         1 O35       0.163100
     17 C22        183.5080    11.2410    82.4180 ca         1 O35      -0.204000
     18 C24        189.6680     8.1340    76.7550 c3         1 O35       0.145900
     19 C27        193.5390    10.7080    68.4630 c3         1 O35       0.148600
     20 O          189.1200    11.6760    74.2440 o          1 O35      -0.578100
     21 C5         191.3850    10.8290    72.5620 ca         1 O35      -0.019000
     22 C4         192.2370    10.1460    71.6940 ca         1 O35      -0.151000
     23 C25        194.4270     9.8440    70.5200 c3         1 O35       0.209100
     24 N3         193.8000     9.5240    69.2530 n3         1 O35      -0.714600
     25 C26        194.5890     8.5690    68.5050 c3         1 O35       0.148600
     26 C6         191.8240    12.0040    73.1710 ca         1 O35      -0.134000
     27 C          193.5550    13.7720    73.5480 c3         1 O35      -0.047800
     28 N1         185.8860    10.2340    74.7970 nb         1 O35      -0.628000
     29 O3         188.9770     8.7130    75.6600 os         1 O35      -0.333100
     30 O1         184.9940     9.5060    78.2120 os         1 O35      -0.244200
     31 C18        184.2530    10.3330    80.2750 ca         1 O35      -0.134000
     32 O2         181.8630     9.9770    83.6360 os         1 O35      -0.338100
     33 C23        181.8600    10.9500    84.6640 c3         1 O35       0.145900
     34 C17        184.3160    11.3440    81.2630 ca         1 O35       0.330000
     35 N2         185.1260    12.4250    81.1510 nb         1 O35      -0.692000
     36 H1         194.9360    12.1690    71.8430 ha         1 O35       0.110000
     37 H2         187.1910    10.2870    72.6920 hc         1 O35       0.080700
     38 H3         188.0820     8.8220    73.0670 hc         1 O35       0.080700
     39 H4         187.4490     8.6340    77.9350 ha         1 O35       0.141000
     40 H5         184.1950    10.5750    75.9420 h4         1 O35       0.041100
     41 H6         186.5480    11.7500    78.1880 ha         1 O35       0.140000
     42 H7         186.5100    13.3890    80.0070 h4         1 O35       0.019100
     43 H8         183.3150     8.4530    79.7280 ha         1 O35       0.130000
     44 H9         181.9400     8.3150    81.7350 ha         1 O35       0.130000
     45 H10        183.5880    12.0340    83.1480 ha         1 O35       0.137000
     46 H11        190.6540     7.8660    76.3880 h1         1 O35       0.048033
     47 H12        189.7760     8.8410    77.5810 h1         1 O35       0.048033
     48 H13        189.1650     7.2340    77.1160 h1         1 O35       0.048033
     49 H14        192.9050    11.4050    69.0120 h1         1 O35       0.031867
     50 H15        194.4580    11.2430    68.1740 h1         1 O35       0.031867
     51 H16        193.0150    10.4330    67.5470 h1         1 O35       0.031867
     52 H17        189.9610     9.4070    72.2530 hn         1 O35       0.150000
     53 H18        191.9000     9.2360    71.2090 ha         1 O35       0.122000
     54 H19        194.6960     8.9010    71.0070 h1         1 O35       0.037700
     55 H20        195.3710    10.4010    70.3890 h1         1 O35       0.037700
     56 H22        194.7310     7.6580    69.0890 h1         1 O35       0.031867
     57 H23        194.0700     8.3000    67.5840 h1         1 O35       0.031867
     58 H24        195.5840     8.9500    68.2280 h1         1 O35       0.031867
     59 H25        191.1820    12.5470    73.8470 ha         1 O35       0.147000
     60 H26        193.0540    14.6300    73.0970 hc         1 O35       0.043367
     61 H27        193.3260    13.7920    74.6140 hc         1 O35       0.043367
     62 H28        194.6280    13.9200    73.4320 hc         1 O35       0.043367
     63 H29        181.1380    10.6160    85.4050 h1         1 O35       0.044700
     64 H30        182.8400    11.0380    85.1400 h1         1 O35       0.044700
     65 H31        181.5590    11.9320    84.2910 h1         1 O35       0.044700
     66 N          190.1190    10.2640    72.7600 ns         1 O35      -0.143000
@<TRIPOS>BOND
     1     1     2 ar  
     2     1    26 ar  
     3     1    27 1   
     4     2     3 ar  
     5     2    36 1   
     6     3    22 ar  
     7     3    23 1   
     8     4     5 1   
     9     4    20 2   
    10     4    66 1   
    11     5     6 1   
    12     5    37 1   
    13     5    38 1   
    14     6     7 ar  
    15     6    28 ar  
    16     7     8 ar  
    17     7    29 1   
    18     8     9 ar  
    19     8    39 1   
    20     9    10 ar  
    21     9    30 1   
    22    10    28 ar  
    23    10    40 1   
    24    11    12 ar  
    25    11    30 1   
    26    11    31 ar  
    27    12    13 ar  
    28    12    41 1   
    29    13    35 ar  
    30    13    42 1   
    31    14    15 ar  
    32    14    31 ar  
    33    14    43 1   
    34    15    16 ar  
    35    15    44 1   
    36    16    17 ar  
    37    16    32 1   
    38    17    34 ar  
    39    17    45 1   
    40    18    29 1   
    41    18    46 1   
    42    18    47 1   
    43    18    48 1   
    44    19    24 1   
    45    19    49 1   
    46    19    50 1   
    47    19    51 1   
    48    21    22 ar  
    49    21    26 ar  
    50    21    66 1   
    51    22    53 1   
    52    23    24 1   
    53    23    54 1   
    54    23    55 1   
    55    24    25 1   
    56    25    56 1   
    57    25    57 1   
    58    25    58 1   
    59    26    59 1   
    60    27    60 1   
    61    27    61 1   
    62    27    62 1   
    63    31    34 ar  
    64    32    33 1   
    65    33    63 1   
    66    33    64 1   
    67    33    65 1   
    68    34    35 ar  
    69    52    66 1   
@<TRIPOS>SUBSTRUCTURE
     1 O35         1 TEMP              0 ****  ****    0 ROOT
