@<TRIPOS>MOLECULE
O36
   45    47     1     0     0
SMALL
No Charge or Current Charge


@<TRIPOS>ATOM
      1 C13          5.9830    -6.7350    82.9750 c6         1 O36      -0.063400
      2 C15          4.4450    -4.8820    83.7590 c          1 O36       0.604300
      3 C21         -0.7080    -3.4150    83.3740 c          1 O36       0.598600
      4 C26         -3.8130    -3.1680    82.4160 c1         1 O36      -0.163100
      5 C1           2.9850    -2.2800    83.0230 ca         1 O36      -0.173600
      6 C2           2.9330    -1.0880    83.7570 ca         1 O36      -0.003000
      7 C3           1.7420    -0.6730    84.3510 ca         1 O36      -0.183000
      8 C4           0.5820    -1.4710    84.2830 ca         1 O36       0.141600
      9 C5           0.5880    -2.6360    83.4850 ca         1 O36      -0.210600
     10 C6           1.7950    -3.0320    82.8170 ca         1 O36       0.078700
     11 C7           1.8110    -4.1870    81.8030 c3         1 O36      -0.058800
     12 C8           4.3310    -2.6730    82.4700 c          1 O36       0.638900
     13 C9           4.8210    -4.0740    82.5690 ce         1 O36      -0.486400
     14 C11          5.5800    -4.6220    81.5950 c2         1 O36       0.284900
     15 C12          6.0640    -6.0660    81.5850 c6         1 O36      -0.074200
     16 C14          4.6360    -6.3970    83.6450 c6         1 O36      -0.180400
     17 C19         -1.8820    -1.6290    84.6100 c          1 O36       0.623000
     18 C27         -4.3220    -2.8510    81.3640 c1         1 O36      -0.215000
     19 N18         -0.6480    -1.0070    84.8630 n          1 O36      -0.304000
     20 N20         -1.8680    -2.8250    83.8900 n          1 O36      -0.377400
     21 O10          4.9660    -1.8690    81.7970 o          1 O36      -0.601100
     22 O16          5.9710    -3.9410    80.5140 oh         1 O36      -0.543100
     23 O17          4.0130    -4.3810    84.7850 o          1 O36      -0.535100
     24 O22         -0.7570    -4.5380    82.8890 o          1 O36      -0.527000
     25 O23         -2.9300    -1.1530    85.0290 o          1 O36      -0.557000
     26 H1           6.1060    -7.8240    82.8810 hc         1 O36       0.057700
     27 H2           6.8080    -6.3780    83.6080 hc         1 O36       0.057700
     28 H3          -1.5190     0.1380    86.4670 h1         1 O36       0.059367
     29 H4           0.2410    -0.0060    86.5210 h1         1 O36       0.059367
     30 H5          -0.5280     1.0690    85.3120 h1         1 O36       0.059367
     31 H6           3.8270    -0.4790    83.8740 ha         1 O36       0.124000
     32 H7           1.7520     0.2700    84.8880 ha         1 O36       0.127000
     33 H8           1.8160    -5.1620    82.3050 hc         1 O36       0.059700
     34 H9           0.9410    -4.1440    81.1390 hc         1 O36       0.059700
     35 H10          2.6670    -4.1530    81.1230 hc         1 O36       0.059700
     36 H13          5.4520    -6.6320    80.8700 hc         1 O36       0.081200
     37 H14          7.0970    -6.1160    81.2120 hc         1 O36       0.081200
     38 H15          4.5080    -6.8760    84.6250 hc         1 O36       0.073200
     39 H16          3.8530    -6.7620    82.9680 hc         1 O36       0.073200
     40 H17         -3.8560    -3.3140    84.5110 h1         1 O36       0.088700
     41 H18         -3.0170    -4.6200    83.7080 h1         1 O36       0.088700
     42 H19         -4.7630    -2.5610    80.4310 ha         1 O36       0.254000
     43 H20          5.7070    -3.0050    80.7060 ho         1 O36       0.549000
     44 C25         -3.1650    -3.5320    83.6860 c3         1 O36       0.189100
     45 C24         -0.6160     0.1140    85.8450 c3         1 O36       0.086300
@<TRIPOS>BOND
     1     1    15 1   
     2     1    16 1   
     3     1    26 1   
     4     1    27 1   
     5     2    13 1   
     6     2    16 1   
     7     2    23 2   
     8     3     9 1   
     9     3    20 1   
    10     3    24 2   
    11     4    18 3   
    12     4    44 1   
    13     5     6 ar  
    14     5    10 ar  
    15     5    12 1   
    16     6     7 ar  
    17     6    31 1   
    18     7     8 ar  
    19     7    32 1   
    20     8     9 ar  
    21     8    19 1   
    22     9    10 ar  
    23    10    11 1   
    24    11    33 1   
    25    11    34 1   
    26    11    35 1   
    27    12    13 1   
    28    12    21 2   
    29    13    14 2   
    30    14    15 1   
    31    14    22 1   
    32    15    36 1   
    33    15    37 1   
    34    16    38 1   
    35    16    39 1   
    36    17    19 1   
    37    17    20 1   
    38    17    25 2   
    39    18    42 1   
    40    19    45 1   
    41    20    44 1   
    42    22    43 1   
    43    28    45 1   
    44    29    45 1   
    45    30    45 1   
    46    40    44 1   
    47    41    44 1   
@<TRIPOS>SUBSTRUCTURE
     1 O36         1 TEMP              0 ****  ****    0 ROOT
