@<TRIPOS>MOLECULE
O36
   45    47     1     0     0
SMALL
abcg2


@<TRIPOS>ATOM
      1 C13          6.3920    -6.4420    83.2860 c6         1 O36      -0.063400
      2 C15          4.2680    -5.1030    83.5500 c          1 O36       0.604300
      3 C21         -0.9110    -3.2760    83.0650 c          1 O36       0.598600
      4 C26         -4.0690    -2.7410    82.7050 c1         1 O36      -0.163100
      5 C1           2.7760    -2.5440    82.8140 ca         1 O36      -0.173600
      6 C2           2.8630    -1.4320    83.6500 ca         1 O36      -0.003000
      7 C3           1.7600    -0.9580    84.3260 ca         1 O36      -0.183000
      8 C4           0.5220    -1.5840    84.1500 ca         1 O36       0.141600
      9 C5           0.4110    -2.6760    83.2630 ca         1 O36      -0.210600
     10 C6           1.5530    -3.1720    82.5880 ca         1 O36       0.078700
     11 C7           1.4840    -4.3400    81.6430 c3         1 O36      -0.058800
     12 C8           4.0420    -2.9700    82.1420 c          1 O36       0.638900
     13 C9           4.7220    -4.2100    82.4700 ce         1 O36      -0.486400
     14 C11          5.8460    -4.5630    81.7190 c2         1 O36       0.284900
     15 C12          6.5980    -5.8350    81.9050 c6         1 O36      -0.074200
     16 C14          4.9070    -6.4730    83.6260 c6         1 O36      -0.180400
     17 C19         -1.8310    -1.6880    84.7370 c          1 O36       0.623000
     18 C27         -4.7310    -2.2050    81.8590 c1         1 O36      -0.215000
     19 N18         -0.5890    -1.1150    84.8440 n          1 O36      -0.304000
     20 N20         -1.9320    -2.7720    83.8730 n          1 O36      -0.377400
     21 O10          4.5070    -2.1920    81.2800 o          1 O36      -0.601100
     22 O16          6.3090    -3.7910    80.7740 oh         1 O36      -0.543100
     23 O17          3.4080    -4.7810    84.3590 o          1 O36      -0.535100
     24 O22         -1.1740    -4.1650    82.2690 o          1 O36      -0.527000
     25 O23         -2.8090    -1.2850    85.3520 o          1 O36      -0.557000
     26 H1           6.8080    -7.4490    83.3120 hc         1 O36       0.057700
     27 H2           6.9280    -5.8480    84.0300 hc         1 O36       0.057700
     28 H3          -1.4260     0.2480    86.1630 h1         1 O36       0.059367
     29 H4           0.2520    -0.1880    86.5370 h1         1 O36       0.059367
     30 H5          -0.1040     0.9050    85.1780 h1         1 O36       0.059367
     31 H6           3.8200    -0.9460    83.7920 ha         1 O36       0.124000
     32 H7           1.8670    -0.1120    84.9840 ha         1 O36       0.127000
     33 H8           1.1030    -5.2290    82.1440 hc         1 O36       0.059700
     34 H9           0.8080    -4.1330    80.8150 hc         1 O36       0.059700
     35 H10          2.4650    -4.5680    81.2340 hc         1 O36       0.059700
     36 H13          6.2390    -6.5250    81.1300 hc         1 O36       0.081200
     37 H14          7.6500    -5.6440    81.6890 hc         1 O36       0.081200
     38 H15          4.7230    -6.8730    84.6220 hc         1 O36       0.073200
     39 H16          4.3780    -7.1110    82.9080 hc         1 O36       0.073200
     40 H17         -3.7600    -3.3070    84.7020 h1         1 O36       0.088700
     41 H18         -3.1150    -4.4330    83.4990 h1         1 O36       0.088700
     42 H19         -5.3180    -1.7280    81.1090 ha         1 O36       0.254000
     43 H20          5.7040    -2.9690    80.7540 ho         1 O36       0.549000
     44 C25         -3.2620    -3.3820    83.7390 c3         1 O36       0.189100
     45 C24         -0.4540     0.0380    85.7380 c3         1 O36       0.086300
@<TRIPOS>BOND
     1     1    15 1   
     2     1    16 1   
     3     1    26 1   
     4     1    27 1   
     5     2    13 1   
     6     2    16 1   
     7     2    23 2   
     8     3     9 1   
     9     3    20 1   
    10     3    24 2   
    11     4    18 3   
    12     4    44 1   
    13     5     6 ar  
    14     5    10 ar  
    15     5    12 1   
    16     6     7 ar  
    17     6    31 1   
    18     7     8 ar  
    19     7    32 1   
    20     8     9 ar  
    21     8    19 1   
    22     9    10 ar  
    23    10    11 1   
    24    11    33 1   
    25    11    34 1   
    26    11    35 1   
    27    12    13 1   
    28    12    21 2   
    29    13    14 2   
    30    14    15 1   
    31    14    22 1   
    32    15    36 1   
    33    15    37 1   
    34    16    38 1   
    35    16    39 1   
    36    17    19 1   
    37    17    20 1   
    38    17    25 2   
    39    18    42 1   
    40    19    45 1   
    41    20    44 1   
    42    22    43 1   
    43    28    45 1   
    44    29    45 1   
    45    30    45 1   
    46    40    44 1   
    47    41    44 1   
@<TRIPOS>SUBSTRUCTURE
     1 O36         1 TEMP              0 ****  ****    0 ROOT
