@<TRIPOS>MOLECULE
O37
   67    71     1     0     0
SMALL
bcc


@<TRIPOS>ATOM
      1 N            1.9960    -0.3050     0.5020 ns         1 O37      -0.550900
      2 CA           0.5710    -0.3320     0.6150 c6         1 O37       0.033700
      3 C           -0.0510    -0.8740    -0.6800 c          1 O37       0.689500
      4 O            0.6340    -1.3400    -1.5640 o          1 O37      -0.596500
      5 CB          -0.0120     1.0450     1.0170 c6         1 O37       0.080900
      6 CG           0.4930     2.1650     0.1340 ca         1 O37      -0.100300
      7 CD1         -0.1320     2.4990    -1.0650 ca         1 O37      -0.096000
      8 CD2          1.6460     2.8600     0.4950 ca         1 O37      -0.096000
      9 CE1          0.3840     3.4860    -1.8930 ca         1 O37      -0.171000
     10 CE2          2.1790     3.8510    -0.3170 ca         1 O37      -0.171000
     11 CZ           1.5360     4.1420    -1.5040 ca         1 O37       0.138900
     12 CAA         -2.1800    -2.6510    -2.2890 c3         1 O37      -0.107100
     13 CAH          2.7800    -1.3320     0.8990 c          1 O37       0.687700
     14 CAJ          4.2410    -1.1610     0.6430 ca         1 O37      -0.144600
     15 CAK          5.0250    -2.3080     0.5440 ca         1 O37      -0.074000
     16 CAL          6.3920    -2.2320     0.3030 ca         1 O37      -0.083300
     17 CAM          6.9730    -0.9700     0.1870 ca         1 O37      -0.108000
     18 CAN          6.2060     0.1800     0.3040 ca         1 O37      -0.136000
     19 CAO          4.8410     0.0910     0.5290 ca         1 O37      -0.108000
     20 CAP          7.2170    -3.4750     0.1500 c3         1 O37      -0.047800
     21 CAY         -1.4870     0.8510     1.0120 cc         1 O37      -0.324600
     22 CAZ         -2.0900    -0.0700     0.1880 cd         1 O37       0.066300
     23 CBC         -2.5310     1.3620     1.7980 cc         1 O37       0.366600
     24 CBD         -2.4460     2.4100     2.8510 c3         1 O37      -0.122400
     25 CBE         -4.4720    -0.9730     0.0530 c6         1 O37       0.075000
     26 CBF         -5.5090    -0.2030    -0.7590 c6         1 O37      -0.056200
     27 CBG         -6.7170    -1.0470    -1.0350 c2         1 O37      -0.170200
     28 CBH         -6.9790    -2.1860    -0.3990 c2         1 O37      -0.168200
     29 CBI         -6.1140    -2.7370     0.6930 c6         1 O37      -0.046200
     30 CBJ         -5.1290    -1.6990     1.2220 c6         1 O37      -0.083400
     31 FAV          2.0410     5.0960    -2.3010 f          1 O37      -0.142900
     32 NAC         -1.4160    -0.8060    -0.7840 n          1 O37      -0.374000
     33 NBA         -3.4010    -0.0990     0.5050 na         1 O37       0.098400
     34 NBB         -3.6740     0.7880     1.4750 nd         1 O37      -0.526800
     35 OAI          2.3370    -2.3310     1.4430 o          1 O37      -0.594100
     36 H            2.3900     0.3720    -0.1330 hn         1 O37       0.325500
     37 HA           0.3070    -1.0310     1.4130 h1         1 O37       0.112700
     38 HB           0.3290     1.2360     2.0380 hc         1 O37       0.077700
     39 HD1         -1.0470     2.0020    -1.3610 ha         1 O37       0.139000
     40 HD2          2.1380     2.6300     1.4330 ha         1 O37       0.139000
     41 HE1         -0.1070     3.7430    -2.8220 ha         1 O37       0.151000
     42 HE2          3.0730     4.3860    -0.0260 ha         1 O37       0.151000
     43 HAC         -1.2160    -3.1570    -2.3090 hc         1 O37       0.048700
     44 HAA         -2.7850    -3.1160    -1.5100 hc         1 O37       0.048700
     45 HAB         -2.6700    -2.8290    -3.2460 hc         1 O37       0.048700
     46 HAD         -1.4020    -0.7320    -2.8670 h1         1 O37       0.053200
     47 HAE         -2.9800    -0.6490    -2.1440 h1         1 O37       0.053200
     48 HAK          4.5580    -3.2790     0.6510 ha         1 O37       0.153000
     49 HAM          8.0390    -0.8850     0.0130 ha         1 O37       0.131000
     50 HAN          6.6750     1.1520     0.2280 ha         1 O37       0.133000
     51 HAO          4.2690     1.0030     0.6480 ha         1 O37       0.130000
     52 HAR          7.2950    -3.7610    -0.9010 hc         1 O37       0.045033
     53 HAP          8.2310    -3.3300     0.5220 hc         1 O37       0.045033
     54 HAQ          6.7780    -4.3170     0.6840 hc         1 O37       0.045033
     55 HBD         -2.2050     3.3840     2.4230 hc         1 O37       0.050033
     56 HE3         -3.3910     2.5020     3.3850 hc         1 O37       0.050033
     57 HE4         -1.6670     2.1750     3.5780 hc         1 O37       0.050033
     58 H2          -4.0140    -1.7300    -0.5810 h1         1 O37       0.067700
     59 HBF         -5.7960     0.7050    -0.2180 hc         1 O37       0.063700
     60 H3          -5.0710     0.1340    -1.7030 hc         1 O37       0.063700
     61 HBG         -7.3930    -0.6940    -1.8060 ha         1 O37       0.127000
     62 HBH         -7.8600    -2.7560    -0.6730 ha         1 O37       0.126000
     63 HBI         -6.7400    -3.0990     1.5130 hc         1 O37       0.052200
     64 H4          -5.5770    -3.6190     0.3260 hc         1 O37       0.052200
     65 HBJ         -4.3690    -2.1790     1.8410 hc         1 O37       0.063700
     66 H5          -5.6540    -0.9760     1.8500 hc         1 O37       0.063700
     67 CAB         -2.0190    -1.1570    -2.0750 c3         1 O37       0.102000
@<TRIPOS>BOND
     1     1     2 1   
     2     1    13 1   
     3     1    36 1   
     4     2     3 1   
     5     2     5 1   
     6     2    37 1   
     7     3     4 2   
     8     3    32 1   
     9     5     6 1   
    10     5    21 1   
    11     5    38 1   
    12     6     7 ar  
    13     6     8 ar  
    14     7     9 ar  
    15     7    39 1   
    16     8    10 ar  
    17     8    40 1   
    18     9    11 ar  
    19     9    41 1   
    20    10    11 ar  
    21    10    42 1   
    22    11    31 1   
    23    12    43 1   
    24    12    44 1   
    25    12    45 1   
    26    12    67 1   
    27    13    14 1   
    28    13    35 2   
    29    14    15 ar  
    30    14    19 ar  
    31    15    16 ar  
    32    15    48 1   
    33    16    17 ar  
    34    16    20 1   
    35    17    18 ar  
    36    17    49 1   
    37    18    19 ar  
    38    18    50 1   
    39    19    51 1   
    40    20    52 1   
    41    20    53 1   
    42    20    54 1   
    43    21    22 2   
    44    21    23 1   
    45    22    32 1   
    46    22    33 1   
    47    23    24 1   
    48    23    34 2   
    49    24    55 1   
    50    24    56 1   
    51    24    57 1   
    52    25    26 1   
    53    25    30 1   
    54    25    33 1   
    55    25    58 1   
    56    26    27 1   
    57    26    59 1   
    58    26    60 1   
    59    27    28 2   
    60    27    61 1   
    61    28    29 1   
    62    28    62 1   
    63    29    30 1   
    64    29    63 1   
    65    29    64 1   
    66    30    65 1   
    67    30    66 1   
    68    32    67 1   
    69    33    34 1   
    70    46    67 1   
    71    47    67 1   
@<TRIPOS>SUBSTRUCTURE
     1 O37         1 TEMP              0 ****  ****    0 ROOT
