@<TRIPOS>MOLECULE
O37
   67    71     1     0     0
SMALL
No Charge or Current Charge


@<TRIPOS>ATOM
      1 N            2.1340    -0.5430     0.5420 ns         1 O37      -0.483900
      2 CA           0.6720    -0.7360     0.7480 c6         1 O37       0.033700
      3 C           -0.0540    -1.4080    -0.4660 c          1 O37       0.547000
      4 O            0.5800    -2.0990    -1.2580 o          1 O37      -0.521000
      5 CB          -0.0090     0.5710     1.2340 c6         1 O37       0.080900
      6 CG           0.4970     1.8080     0.4730 ca         1 O37      -0.100300
      7 CD1          0.1260     2.0290    -0.8710 ca         1 O37      -0.078000
      8 CD2          1.3540     2.7280     1.1140 ca         1 O37      -0.078000
      9 CE1          0.6080     3.1550    -1.5630 ca         1 O37      -0.153000
     10 CE2          1.8340     3.8520     0.4190 ca         1 O37      -0.153000
     11 CZ           1.4600     4.0620    -0.9160 ca         1 O37       0.174000
     12 CAA         -2.5250    -3.4320    -1.3740 c3         1 O37      -0.107100
     13 CAH          3.0970    -1.5240     0.6120 c          1 O37       0.620700
     14 CAJ          4.5090    -1.1090     0.2490 ca         1 O37      -0.144600
     15 CAK          5.5460    -2.0700     0.2920 ca         1 O37      -0.056000
     16 CAL          6.8710    -1.7250    -0.0370 ca         1 O37      -0.083300
     17 CAM          7.1700    -0.4060    -0.4170 ca         1 O37      -0.090000
     18 CAN          6.1540     0.5600    -0.4640 ca         1 O37      -0.118000
     19 CAO          4.8320     0.2170    -0.1340 ca         1 O37      -0.090000
     20 CAP          7.9690    -2.7770     0.0130 c3         1 O37      -0.047800
     21 CAY         -1.4980     0.4190     1.1280 cc         1 O37      -0.259300
     22 CAZ         -2.1550    -0.4290     0.3020 cd         1 O37       0.015600
     23 CBC         -2.4550     1.1750     1.8200 cc         1 O37       0.301300
     24 CBD         -2.1080     2.2490     2.8130 c3         1 O37      -0.122400
     25 CBE         -4.7190    -0.8010    -0.0550 c6         1 O37       0.104300
     26 CBF         -5.3540     0.1030    -1.1470 c6         1 O37      -0.056200
     27 CBG         -6.6880    -0.4470    -1.6410 c2         1 O37      -0.220200
     28 CBH         -7.3910    -1.3820    -0.9760 c2         1 O37      -0.218200
     29 CBI         -6.9360    -1.9930     0.3440 c6         1 O37      -0.046200
     30 CBJ         -5.7880    -1.1870     1.0020 c6         1 O37      -0.083400
     31 FAV          1.9220     5.1420    -1.5830 f          1 O37      -0.178000
     32 NAC         -1.4700    -1.2810    -0.5770 n          1 O37      -0.307000
     33 NBA         -3.5250    -0.1500     0.5550 na         1 O37       0.119800
     34 NBB         -3.6900     0.8610     1.5040 nd         1 O37      -0.526800
     35 OAI          2.8180    -2.6620     0.9660 o          1 O37      -0.594100
     36 H            2.4490     0.3700     0.2430 hn         1 O37       0.325500
     37 HA           0.5400    -1.4710     1.5540 h1         1 O37       0.112700
     38 HB           0.2610     0.6890     2.2930 hc         1 O37       0.077700
     39 HD1         -0.5350     1.3340    -1.3820 ha         1 O37       0.121000
     40 HD2          1.6520     2.5740     2.1490 ha         1 O37       0.121000
     41 HE1          0.3210     3.3240    -2.5970 ha         1 O37       0.133000
     42 HE2          2.4950     4.5590     0.9130 ha         1 O37       0.133000
     43 HAC         -1.6270    -4.0420    -1.2190 hc         1 O37       0.048700
     44 HAA         -3.1290    -3.4880    -0.4610 hc         1 O37       0.048700
     45 HAB         -3.0990    -3.8710    -2.1980 hc         1 O37       0.048700
     46 HAD         -1.4690    -1.9830    -2.5820 h1         1 O37       0.053200
     47 HAE         -3.0150    -1.4120    -2.0220 h1         1 O37       0.053200
     48 HAK          5.3230    -3.0950     0.5810 ha         1 O37       0.135000
     49 HAM          8.1890    -0.1280    -0.6770 ha         1 O37       0.113000
     50 HAN          6.3910     1.5810    -0.7580 ha         1 O37       0.115000
     51 HAO          4.0750     0.9950    -0.1830 ha         1 O37       0.112000
     52 HAR          8.0200    -3.3320    -0.9320 hc         1 O37       0.045033
     53 HAP          8.9520    -2.3240     0.1880 hc         1 O37       0.045033
     54 HAQ          7.7930    -3.5000     0.8180 hc         1 O37       0.045033
     55 HBD         -1.5040     3.0330     2.3420 hc         1 O37       0.050033
     56 HE3         -3.0100     2.7200     3.2210 hc         1 O37       0.050033
     57 HE4         -1.5370     1.8340     3.6510 hc         1 O37       0.050033
     58 H2          -4.4140    -1.7400    -0.5210 h1         1 O37       0.067700
     59 HBF         -5.5130     1.1160    -0.7520 hc         1 O37       0.063700
     60 H3          -4.6600     0.2080    -1.9910 hc         1 O37       0.063700
     61 HBG         -7.0600    -0.0390    -2.5840 ha         1 O37       0.177000
     62 HBH         -8.3420    -1.7450    -1.3720 ha         1 O37       0.176000
     63 HBI         -7.7860    -2.0520     1.0390 hc         1 O37       0.052200
     64 H4          -6.6090    -3.0270     0.1660 hc         1 O37       0.052200
     65 HBJ         -5.3330    -1.7780     1.8090 hc         1 O37       0.063700
     66 H5          -6.2000    -0.2810     1.4660 hc         1 O37       0.063700
     67 CAB         -2.1330    -1.9780    -1.7080 c3         1 O37       0.102000
@<TRIPOS>BOND
     1     1     2 1   
     2     1    13 1   
     3     1    36 1   
     4     2     3 1   
     5     2     5 1   
     6     2    37 1   
     7     3     4 2   
     8     3    32 1   
     9     5     6 1   
    10     5    21 1   
    11     5    38 1   
    12     6     7 ar  
    13     6     8 ar  
    14     7     9 ar  
    15     7    39 1   
    16     8    10 ar  
    17     8    40 1   
    18     9    11 ar  
    19     9    41 1   
    20    10    11 ar  
    21    10    42 1   
    22    11    31 1   
    23    12    43 1   
    24    12    44 1   
    25    12    45 1   
    26    12    67 1   
    27    13    14 1   
    28    13    35 2   
    29    14    15 ar  
    30    14    19 ar  
    31    15    16 ar  
    32    15    48 1   
    33    16    17 ar  
    34    16    20 1   
    35    17    18 ar  
    36    17    49 1   
    37    18    19 ar  
    38    18    50 1   
    39    19    51 1   
    40    20    52 1   
    41    20    53 1   
    42    20    54 1   
    43    21    22 2   
    44    21    23 1   
    45    22    32 1   
    46    22    33 1   
    47    23    24 1   
    48    23    34 2   
    49    24    55 1   
    50    24    56 1   
    51    24    57 1   
    52    25    26 1   
    53    25    30 1   
    54    25    33 1   
    55    25    58 1   
    56    26    27 1   
    57    26    59 1   
    58    26    60 1   
    59    27    28 2   
    60    27    61 1   
    61    28    29 1   
    62    28    62 1   
    63    29    30 1   
    64    29    63 1   
    65    29    64 1   
    66    30    65 1   
    67    30    66 1   
    68    32    67 1   
    69    33    34 1   
    70    46    67 1   
    71    47    67 1   
@<TRIPOS>SUBSTRUCTURE
     1 O37         1 TEMP              0 ****  ****    0 ROOT
