@<TRIPOS>MOLECULE
O38
   57    60     1     0     0
SMALL
No Charge or Current Charge


@<TRIPOS>ATOM
      1 N6          -6.0490     4.1890     2.3430 n1         1 O38      -0.427000
      2 C23         -5.0050     3.8890     1.9150 c1         1 O38       0.295900
      3 C22         -3.6790     3.5430     1.3820 c3         1 O38       0.229700
      4 O           -3.6950     2.1870     0.8890 os         1 O38      -0.327100
      5 C21         -2.5920     1.5730     0.3270 ca         1 O38       0.170100
      6 C4          -2.7010     0.2280    -0.1280 ca         1 O38      -0.030000
      7 C2          -3.9620    -0.5470    -0.0210 cc         1 O38      -0.145000
      8 C1          -4.0620    -1.8510    -0.4260 cd         1 O38      -0.167000
      9 C3          -5.2400    -0.2080     0.4740 cc         1 O38       0.271900
     10 N1          -6.1220    -1.1850     0.4070 nd         1 O38      -0.528800
     11 N           -5.3850    -2.2140    -0.1560 na         1 O38       0.133800
     12 C           -5.9980    -3.5250    -0.4120 c3         1 O38       0.074900
     13 C20         -1.3680     2.2710     0.2070 ca         1 O38      -0.260000
     14 C7          -0.2430     1.6540    -0.3460 ca         1 O38       0.346000
     15 C6          -0.3470     0.3390    -0.8150 ca         1 O38      -0.160000
     16 C5          -1.5540    -0.3670    -0.7040 ca         1 O38      -0.059000
     17 N2           0.9310     2.3990    -0.4490 nu         1 O38      -0.933900
     18 C8           2.2670     2.0890    -0.4750 ca         1 O38       0.692900
     19 N5           2.5760     0.8460    -0.1330 nb         1 O38      -0.828000
     20 C13          3.8660     0.5080    -0.1280 ca         1 O38       0.713900
     21 C11          4.9020     1.4020    -0.4450 ca         1 O38      -0.223000
     22 C12          6.2720     0.9960    -0.4250 cg         1 O38       0.344000
     23 N3           7.3870     0.6540    -0.4040 n1         1 O38      -0.483000
     24 C10          4.5670     2.7190    -0.7880 ca         1 O38       0.050000
     25 C9           3.2110     3.0630    -0.7970 ca         1 O38      -0.300000
     26 N4           4.1000    -0.8100     0.2270 nu         1 O38      -0.918100
     27 C14          3.1090    -1.9010     0.2000 c6         1 O38       0.234500
     28 C19          3.6200    -3.0790     1.0670 c6         1 O38      -0.092400
     29 C18          2.6280    -4.2710     1.0280 c6         1 O38      -0.071400
     30 C17          2.3600    -4.7300    -0.4270 c6         1 O38      -0.078400
     31 C16          1.8710    -3.5540    -1.3070 c6         1 O38      -0.071400
     32 C15          2.8670    -2.3690    -1.2600 c6         1 O38      -0.092400
     33 H1          -3.4340     4.2470     0.5770 h1         1 O38       0.061700
     34 H2          -2.9420     3.6580     2.1850 h1         1 O38       0.061700
     35 H3          -3.3510    -2.5420    -0.8630 h4         1 O38       0.151000
     36 H4          -5.5740     0.7330     0.8880 h4         1 O38       0.045100
     37 H5          -6.3500    -3.9550     0.5330 h1         1 O38       0.055700
     38 H6          -6.8460    -3.4060    -1.0970 h1         1 O38       0.055700
     39 H7          -5.2600    -4.1980    -0.8630 h1         1 O38       0.055700
     40 H8          -1.2710     3.2950     0.5510 ha         1 O38       0.110000
     41 H9           0.5040    -0.1430    -1.2830 ha         1 O38       0.153000
     42 H10         -1.5770    -1.3840    -1.0830 ha         1 O38       0.114000
     43 H11          0.7840     3.4010    -0.4090 hn         1 O38       0.497000
     44 H12          5.3310     3.4540    -1.0400 ha         1 O38       0.125000
     45 H13          2.9000     4.0700    -1.0560 ha         1 O38       0.126000
     46 H14          5.0830    -1.0630     0.2550 hn         1 O38       0.501000
     47 H15          2.1510    -1.5670     0.6310 h1         1 O38       0.079700
     48 H16          4.6050    -3.4120     0.7110 hc         1 O38       0.048200
     49 H17          3.7550    -2.7480     2.1050 hc         1 O38       0.048200
     50 H18          3.0280    -5.1080     1.6160 hc         1 O38       0.042450
     51 H19          1.6810    -3.9790     1.5040 hc         1 O38       0.042450
     52 H20          3.2790    -5.1550    -0.8550 hc         1 O38       0.041700
     53 H21          1.6140    -5.5360    -0.4320 hc         1 O38       0.041700
     54 H22          1.7420    -3.8930    -2.3450 hc         1 O38       0.042450
     55 H23          0.8820    -3.2190    -0.9630 hc         1 O38       0.042450
     56 H24          2.4790    -1.5390    -1.8660 hc         1 O38       0.048200
     57 H25          3.8190    -2.6700    -1.7200 hc         1 O38       0.048200
@<TRIPOS>BOND
     1     1     2 3   
     2     2     3 1   
     3     3     4 1   
     4     3    33 1   
     5     3    34 1   
     6     4     5 1   
     7     5     6 ar  
     8     5    13 ar  
     9     6     7 1   
    10     6    16 ar  
    11     7     8 2   
    12     7     9 1   
    13     8    11 1   
    14     8    35 1   
    15     9    10 2   
    16     9    36 1   
    17    10    11 1   
    18    11    12 1   
    19    12    37 1   
    20    12    38 1   
    21    12    39 1   
    22    13    14 ar  
    23    13    40 1   
    24    14    15 ar  
    25    14    17 1   
    26    15    16 ar  
    27    15    41 1   
    28    16    42 1   
    29    17    18 1   
    30    17    43 1   
    31    18    19 ar  
    32    18    25 ar  
    33    19    20 ar  
    34    20    21 ar  
    35    20    26 1   
    36    21    22 1   
    37    21    24 ar  
    38    22    23 3   
    39    24    25 ar  
    40    24    44 1   
    41    25    45 1   
    42    26    27 1   
    43    26    46 1   
    44    27    28 1   
    45    27    32 1   
    46    27    47 1   
    47    28    29 1   
    48    28    48 1   
    49    28    49 1   
    50    29    30 1   
    51    29    50 1   
    52    29    51 1   
    53    30    31 1   
    54    30    52 1   
    55    30    53 1   
    56    31    32 1   
    57    31    54 1   
    58    31    55 1   
    59    32    56 1   
    60    32    57 1   
@<TRIPOS>SUBSTRUCTURE
     1 O38         1 TEMP              0 ****  ****    0 ROOT
