@<TRIPOS>MOLECULE
O38
   57    60     1     0     0
SMALL
bcc


@<TRIPOS>ATOM
      1 N6          -6.3010     4.3000     0.8110 n1         1 O38      -0.337800
      2 C23         -5.2080     3.9770     0.6670 c1         1 O38       0.206700
      3 C22         -3.8120     3.5930     0.4810 c3         1 O38       0.206500
      4 O           -3.7890     2.1930     0.3850 os         1 O38      -0.303900
      5 C21         -2.5930     1.5710     0.2540 ca         1 O38       0.170100
      6 C4          -2.6370     0.1690     0.2140 ca         1 O38      -0.030000
      7 C2          -3.8840    -0.5910     0.3070 cc         1 O38      -0.210300
      8 C1          -4.1350    -1.8150    -0.2870 cd         1 O38      -0.134300
      9 C3          -5.0680    -0.3320     1.0300 cc         1 O38       0.337200
     10 N1          -5.9460    -1.3070     0.8880 nd         1 O38      -0.528800
     11 N           -5.3660    -2.1950     0.0880 na         1 O38       0.112400
     12 C           -6.0720    -3.3910    -0.3020 c3         1 O38       0.045600
     13 C20         -1.3950     2.2570     0.1550 ca         1 O38      -0.278000
     14 C7          -0.1820     1.5700     0.0040 ca         1 O38       0.207600
     15 C6          -0.2060     0.1780    -0.0500 ca         1 O38      -0.178000
     16 C5          -1.4190    -0.4830     0.0610 ca         1 O38      -0.077000
     17 N2           0.9570     2.3600    -0.0910 nu         1 O38      -0.740300
     18 C8           2.2770     2.0310    -0.1430 ca         1 O38       0.758200
     19 N5           2.6290     0.7590    -0.0780 nb         1 O38      -0.828000
     20 C13          3.9150     0.4150    -0.1220 ca         1 O38       0.779200
     21 C11          4.9300     1.3990    -0.2490 ca         1 O38      -0.288300
     22 C12          6.2910     1.0320    -0.3000 cg         1 O38       0.254800
     23 N3           7.4010     0.7090    -0.3410 n1         1 O38      -0.393800
     24 C10          4.5380     2.7400    -0.3180 ca         1 O38       0.032000
     25 C9           3.2130     3.0810    -0.2650 ca         1 O38      -0.383300
     26 N4           4.2120    -0.8900    -0.0220 nu         1 O38      -0.862900
     27 C14          3.2230    -1.9520    -0.0020 c6         1 O38       0.234500
     28 C19          3.8140    -3.1910     0.6630 c6         1 O38      -0.092400
     29 C18          2.7900    -4.3210     0.7060 c6         1 O38      -0.071400
     30 C17          2.2530    -4.6510    -0.6830 c6         1 O38      -0.078400
     31 C16          1.6780    -3.4090    -1.3560 c6         1 O38      -0.071400
     32 C15          2.7060    -2.2840    -1.4030 c6         1 O38      -0.092400
     33 H1          -3.4380     4.0850    -0.4240 h1         1 O38       0.061700
     34 H2          -3.2340     3.9660     1.3330 h1         1 O38       0.061700
     35 H3          -3.5340    -2.4170    -0.9510 h4         1 O38       0.169000
     36 H4          -5.3040     0.5140     1.6550 h4         1 O38       0.045100
     37 H5          -6.3820    -3.9480     0.5790 h1         1 O38       0.055700
     38 H6          -6.9510    -3.1390    -0.8930 h1         1 O38       0.055700
     39 H7          -5.4120    -4.0130    -0.8990 h1         1 O38       0.055700
     40 H8          -1.3720     3.3390     0.1900 ha         1 O38       0.128000
     41 H9           0.7030    -0.3850    -0.1650 ha         1 O38       0.171000
     42 H10         -1.4080    -1.5660     0.0430 ha         1 O38       0.132000
     43 H11          0.7780     3.3530    -0.1060 hn         1 O38       0.441800
     44 H12          5.2920     3.5100    -0.4130 ha         1 O38       0.143000
     45 H13          2.8960     4.1130    -0.3190 ha         1 O38       0.144000
     46 H14          5.1710    -1.1710    -0.1580 hn         1 O38       0.445800
     47 H15          2.3840    -1.6080     0.6110 h1         1 O38       0.079700
     48 H16          4.6980    -3.5150     0.1020 hc         1 O38       0.048200
     49 H17          4.1510    -2.9430     1.6730 hc         1 O38       0.048200
     50 H18          3.2380    -5.2070     1.1620 hc         1 O38       0.042450
     51 H19          1.9580    -4.0260     1.3550 hc         1 O38       0.042450
     52 H20          3.0630    -5.0540    -1.3000 hc         1 O38       0.041700
     53 H21          1.4930    -5.4330    -0.6160 hc         1 O38       0.041700
     54 H22          1.3370    -3.6450    -2.3660 hc         1 O38       0.042450
     55 H23          0.7910    -3.0750    -0.8040 hc         1 O38       0.042450
     56 H24          2.2780    -1.3900    -1.8620 hc         1 O38       0.048200
     57 H25          3.5550    -2.5880    -2.0260 hc         1 O38       0.048200
@<TRIPOS>BOND
     1     1     2 3   
     2     2     3 1   
     3     3     4 1   
     4     3    33 1   
     5     3    34 1   
     6     4     5 1   
     7     5     6 ar  
     8     5    13 ar  
     9     6     7 1   
    10     6    16 ar  
    11     7     8 2   
    12     7     9 1   
    13     8    11 1   
    14     8    35 1   
    15     9    10 2   
    16     9    36 1   
    17    10    11 1   
    18    11    12 1   
    19    12    37 1   
    20    12    38 1   
    21    12    39 1   
    22    13    14 ar  
    23    13    40 1   
    24    14    15 ar  
    25    14    17 1   
    26    15    16 ar  
    27    15    41 1   
    28    16    42 1   
    29    17    18 1   
    30    17    43 1   
    31    18    19 ar  
    32    18    25 ar  
    33    19    20 ar  
    34    20    21 ar  
    35    20    26 1   
    36    21    22 1   
    37    21    24 ar  
    38    22    23 3   
    39    24    25 ar  
    40    24    44 1   
    41    25    45 1   
    42    26    27 1   
    43    26    46 1   
    44    27    28 1   
    45    27    32 1   
    46    27    47 1   
    47    28    29 1   
    48    28    48 1   
    49    28    49 1   
    50    29    30 1   
    51    29    50 1   
    52    29    51 1   
    53    30    31 1   
    54    30    52 1   
    55    30    53 1   
    56    31    32 1   
    57    31    54 1   
    58    31    55 1   
    59    32    56 1   
    60    32    57 1   
@<TRIPOS>SUBSTRUCTURE
     1 O38         1 TEMP              0 ****  ****    0 ROOT
