@<TRIPOS>MOLECULE
O3A
   31    32     1     0     0
SMALL
No Charge or Current Charge


@<TRIPOS>ATOM
      1 N1           0.3350     0.2780    -0.6520 n          1 O3A      -0.253400
      2 C4          -2.9620    -0.8230    -0.3910 c5         1 O3A      -0.100400
      3 C5          -4.3370    -0.5190     0.2780 c5         1 O3A       0.133800
      4 C6          -2.8130     0.9380     1.2440 c5         1 O3A       0.142800
      5 C7           1.7460     0.3400    -0.3490 ca         1 O3A      -0.050000
      6 C8           2.6620    -0.5160    -1.0030 ca         1 O3A      -0.100000
      7 C10          4.4420     0.1710     0.5090 ca         1 O3A      -0.107000
      8 C1          -0.0580     0.2200    -2.0850 c3         1 O3A       0.099300
      9 C11          3.5230     0.9550     1.2240 ca         1 O3A      -0.105500
     10 C12          2.1800     1.0120     0.8150 ca         1 O3A      -0.100000
     11 C2          -0.6300    -0.0310     0.3530 c          1 O3A       0.615100
     12 C3          -2.0820     0.4150    -0.0120 c5         1 O3A      -0.179700
     13 C9           4.0060    -0.5770    -0.5960 ca         1 O3A      -0.105500
     14 N2          -4.2160     0.8640     0.7990 n7         1 O3A      -0.825400
     15 O1          -0.3180    -0.5690     1.4100 o          1 O3A      -0.581100
     16 H2          -3.0540    -0.9360    -1.4770 hc         1 O3A       0.060200
     17 H3          -5.1750    -0.6180    -0.4270 h1         1 O3A       0.063200
     18 H4          -4.5180    -1.2220     1.1050 h1         1 O3A       0.063200
     19 H5          -2.6490     0.2980     2.1240 h1         1 O3A       0.055700
     20 H6          -2.5140     1.9640     1.5040 h1         1 O3A       0.055700
     21 H7           2.3400    -1.1440    -1.8300 ha         1 O3A       0.119000
     22 H8           5.4810     0.1200     0.8280 ha         1 O3A       0.113000
     23 H9          -0.6150     1.1240    -2.3600 h1         1 O3A       0.039367
     24 H10          0.8240     0.1750    -2.7340 h1         1 O3A       0.039367
     25 H11         -0.6770    -0.6660    -2.2710 h1         1 O3A       0.039367
     26 H12          3.8480     1.5080     2.1020 ha         1 O3A       0.114500
     27 H13          1.4760     1.6060     1.3930 ha         1 O3A       0.119000
     28 H14         -2.1020     1.1520    -0.8200 hc         1 O3A       0.064700
     29 H15          4.7060    -1.2180    -1.1270 ha         1 O3A       0.114500
     30 H16         -4.3310     1.5160     0.0130 hn         1 O3A       0.396000
     31 H1          -2.5510    -1.7640    -0.0060 hc         1 O3A       0.060200
@<TRIPOS>BOND
     1     1     5 1   
     2     1     8 1   
     3     1    11 1   
     4     2     3 1   
     5     2    12 1   
     6     2    16 1   
     7     2    31 1   
     8     3    14 1   
     9     3    17 1   
    10     3    18 1   
    11     4    12 1   
    12     4    14 1   
    13     4    19 1   
    14     4    20 1   
    15     5     6 ar  
    16     5    10 ar  
    17     6    13 ar  
    18     6    21 1   
    19     7     9 ar  
    20     7    13 ar  
    21     7    22 1   
    22     8    23 1   
    23     8    24 1   
    24     8    25 1   
    25     9    10 ar  
    26     9    26 1   
    27    10    27 1   
    28    11    12 1   
    29    11    15 2   
    30    12    28 1   
    31    13    29 1   
    32    14    30 1   
@<TRIPOS>SUBSTRUCTURE
     1 O3A         1 TEMP              0 ****  ****    0 ROOT
