@<TRIPOS>MOLECULE
O3A
   31    32     1     0     0
SMALL
abcg2


@<TRIPOS>ATOM
      1 N1           0.2860     0.2970    -0.7280 n          1 O3A      -0.253400
      2 C4          -3.1550    -1.1940    -0.2160 c5         1 O3A      -0.100400
      3 C5          -3.8520    -0.5400     0.9790 c5         1 O3A       0.133800
      4 C6          -2.6040     1.1650     0.0650 c5         1 O3A       0.142800
      5 C7           1.6010     0.1170    -0.2110 ca         1 O3A      -0.050000
      6 C8           2.4860    -0.7430    -0.8480 ca         1 O3A      -0.100000
      7 C10          4.1920    -0.1690     0.7510 ca         1 O3A      -0.107000
      8 C1           0.1240     1.4250    -1.6290 c3         1 O3A       0.099300
      9 C11          3.3060     0.6940     1.3840 ca         1 O3A      -0.105500
     10 C12          2.0110     0.8370     0.9040 ca         1 O3A      -0.100000
     11 C2          -0.7110    -0.4730    -0.2200 c          1 O3A       0.615100
     12 C3          -2.1240    -0.1450    -0.6520 c5         1 O3A      -0.179700
     13 C9           3.7800    -0.8870    -0.3650 ca         1 O3A      -0.105500
     14 N2          -3.8940     0.8830     0.6730 n7         1 O3A      -0.825400
     15 O1          -0.4630    -1.3570     0.5860 o          1 O3A      -0.581100
     16 H2          -3.8790    -1.3440    -1.0190 hc         1 O3A       0.060200
     17 H3          -4.8540    -0.9280     1.1640 h1         1 O3A       0.063200
     18 H4          -3.2660    -0.6940     1.8910 h1         1 O3A       0.063200
     19 H5          -1.8930     1.4470     0.8490 h1         1 O3A       0.055700
     20 H6          -2.6730     2.0100    -0.6190 h1         1 O3A       0.055700
     21 H7           2.1610    -1.2960    -1.7200 ha         1 O3A       0.119000
     22 H8           5.2010    -0.2790     1.1240 ha         1 O3A       0.113000
     23 H9           0.1310     2.3760    -1.0920 h1         1 O3A       0.039367
     24 H10          0.9440     1.4330    -2.3460 h1         1 O3A       0.039367
     25 H11         -0.8000     1.3570    -2.1940 h1         1 O3A       0.039367
     26 H12          3.6220     1.2550     2.2530 ha         1 O3A       0.114500
     27 H13          1.3180     1.5090     1.3940 ha         1 O3A       0.119000
     28 H14         -2.1620    -0.0140    -1.7340 hc         1 O3A       0.064700
     29 H15          4.4660    -1.5610    -0.8600 ha         1 O3A       0.114500
     30 H16         -4.6170     1.0370    -0.0200 hn         1 O3A       0.396000
     31 H1          -2.7150    -2.1630     0.0160 hc         1 O3A       0.060200
@<TRIPOS>BOND
     1     1     5 1   
     2     1     8 1   
     3     1    11 1   
     4     2     3 1   
     5     2    12 1   
     6     2    16 1   
     7     2    31 1   
     8     3    14 1   
     9     3    17 1   
    10     3    18 1   
    11     4    12 1   
    12     4    14 1   
    13     4    19 1   
    14     4    20 1   
    15     5     6 ar  
    16     5    10 ar  
    17     6    13 ar  
    18     6    21 1   
    19     7     9 ar  
    20     7    13 ar  
    21     7    22 1   
    22     8    23 1   
    23     8    24 1   
    24     8    25 1   
    25     9    10 ar  
    26     9    26 1   
    27    10    27 1   
    28    11    12 1   
    29    11    15 2   
    30    12    28 1   
    31    13    29 1   
    32    14    30 1   
@<TRIPOS>SUBSTRUCTURE
     1 O3A         1 TEMP              0 ****  ****    0 ROOT
