@<TRIPOS>MOLECULE
O3D
   27    28     1     0     0
SMALL
No Charge or Current Charge


@<TRIPOS>ATOM
      1 N1           0.1900    -0.7700    -0.0310 n3         1 O3D      -0.741600
      2 C4           2.6930    -0.4890    -0.1800 cc         1 O3D       0.114300
      3 C5           3.1290    -0.1160     1.0620 cd         1 O3D      -0.161000
      4 C6           4.3280     0.6040     0.8790 cd         1 O3D      -0.188000
      5 C7           4.5750     0.6420    -0.4660 cc         1 O3D       0.123900
      6 C8          -0.1170     0.6210    -0.4620 c6         1 O3D       0.184300
      7 C1          -2.1600    -1.3610     0.5420 c6         1 O3D      -0.300900
      8 C2          -0.9280    -1.7110    -0.2970 c6         1 O3D       0.184300
      9 C3           1.4700    -1.2690    -0.6080 c3         1 O3D       0.154500
     10 C9          -1.2650     1.2150     0.3590 c6         1 O3D      -0.300900
     11 O3           3.5750    -0.0290    -1.1360 os         1 O3D      -0.245000
     12 S1          -2.7780     0.2750     0.1400 s6         1 O3D       1.083000
     13 H2           2.6330    -0.3340     2.0020 ha         1 O3D       0.148000
     14 H3           4.9440     1.0490     1.6540 ha         1 O3D       0.142000
     15 H4           5.3730     1.0820    -1.0490 h4         1 O3D       0.053100
     16 H5           0.7600     1.2700    -0.3230 h1         1 O3D       0.058200
     17 H6          -0.3640     0.6520    -1.5350 h1         1 O3D       0.058200
     18 H7          -2.9860    -2.0570     0.3560 h1         1 O3D       0.110950
     19 H8          -1.9180    -1.3460     1.6110 h1         1 O3D       0.110950
     20 H9          -1.1890    -1.7190    -1.3670 h1         1 O3D       0.058200
     21 H10         -0.6260    -2.7380    -0.0380 h1         1 O3D       0.058200
     22 H11          1.6330    -2.3120    -0.3050 h1         1 O3D       0.055700
     23 H12          1.4170    -1.2630    -1.7060 h1         1 O3D       0.055700
     24 H13         -1.0370     1.1890     1.4310 h1         1 O3D       0.110950
     25 H14         -1.4920     2.2410     0.0510 h1         1 O3D       0.110950
     26 O1          -3.1620     0.3080    -1.2780 o          1 O3D      -0.519000
     27 O2          -3.7440     0.6840     1.1690 o          1 O3D      -0.519000
@<TRIPOS>BOND
     1     1     6 1   
     2     1     8 1   
     3     1     9 1   
     4     2     3 2   
     5     2     9 1   
     6     2    11 1   
     7     3     4 1   
     8     3    13 1   
     9     4     5 2   
    10     4    14 1   
    11     5    11 1   
    12     5    15 1   
    13     6    10 1   
    14     6    16 1   
    15     6    17 1   
    16     7     8 1   
    17     7    12 1   
    18     7    18 1   
    19     7    19 1   
    20     8    20 1   
    21     8    21 1   
    22     9    22 1   
    23     9    23 1   
    24    10    12 1   
    25    10    24 1   
    26    10    25 1   
    27    12    26 2   
    28    12    27 2   
@<TRIPOS>SUBSTRUCTURE
     1 O3D         1 TEMP              0 ****  ****    0 ROOT
