@<TRIPOS>MOLECULE
O3D
   27    28     1     0     0
SMALL
abcg2


@<TRIPOS>ATOM
      1 N1           0.2200    -0.6930    -0.1860 n3         1 O3D      -0.741600
      2 C4           2.6180    -0.4180    -0.2430 cc         1 O3D       0.114300
      3 C5           2.8390     0.0970     0.9910 cd         1 O3D      -0.161000
      4 C6           4.1860     0.5780     0.9880 cd         1 O3D      -0.188000
      5 C7           4.6740     0.3150    -0.2450 cc         1 O3D       0.123900
      6 C8          -0.1910     0.6390    -0.5930 c6         1 O3D       0.184300
      7 C1          -1.9800    -1.4010     0.6470 c6         1 O3D      -0.300900
      8 C2          -0.8410    -1.6730    -0.3250 c6         1 O3D       0.184300
      9 C3           1.4420    -1.1020    -0.8520 c3         1 O3D       0.154500
     10 C9          -1.2400     1.2160     0.3450 c6         1 O3D      -0.300900
     11 O3           3.7270    -0.2870    -1.0000 os         1 O3D      -0.245000
     12 S1          -2.7050     0.1980     0.3270 s6         1 O3D       1.083000
     13 H2           2.1310     0.1290     1.8030 ha         1 O3D       0.148000
     14 H3           4.7130     1.0560     1.7970 ha         1 O3D       0.142000
     15 H4           5.6280     0.4910    -0.7150 h4         1 O3D       0.053100
     16 H5           0.6720     1.3040    -0.5540 h1         1 O3D       0.058200
     17 H6          -0.5620     0.6620    -1.6280 h1         1 O3D       0.058200
     18 H7          -2.7780    -2.1380     0.5450 h1         1 O3D       0.110950
     19 H8          -1.6250    -1.3950     1.6780 h1         1 O3D       0.110950
     20 H9          -1.2330    -1.7360    -1.3510 h1         1 O3D       0.058200
     21 H10         -0.4440    -2.6590    -0.0790 h1         1 O3D       0.058200
     22 H11          1.5520    -2.1840    -0.7340 h1         1 O3D       0.055700
     23 H12          1.4190    -0.9180    -1.9370 h1         1 O3D       0.055700
     24 H13         -0.8780     1.2510     1.3730 h1         1 O3D       0.110950
     25 H14         -1.5450     2.2180     0.0360 h1         1 O3D       0.110950
     26 O1          -3.2460     0.1940    -1.0340 o          1 O3D      -0.519000
     27 O2          -3.5980     0.5750     1.4230 o          1 O3D      -0.519000
@<TRIPOS>BOND
     1     1     6 1   
     2     1     8 1   
     3     1     9 1   
     4     2     3 2   
     5     2     9 1   
     6     2    11 1   
     7     3     4 1   
     8     3    13 1   
     9     4     5 2   
    10     4    14 1   
    11     5    11 1   
    12     5    15 1   
    13     6    10 1   
    14     6    16 1   
    15     6    17 1   
    16     7     8 1   
    17     7    12 1   
    18     7    18 1   
    19     7    19 1   
    20     8    20 1   
    21     8    21 1   
    22     9    22 1   
    23     9    23 1   
    24    10    12 1   
    25    10    24 1   
    26    10    25 1   
    27    12    26 2   
    28    12    27 2   
@<TRIPOS>SUBSTRUCTURE
     1 O3D         1 TEMP              0 ****  ****    0 ROOT
