@<TRIPOS>MOLECULE
O3E
   68    72     1     0     0
SMALL
bcc


@<TRIPOS>ATOM
      1 C1           7.1120    -3.3120    14.8770 ca         1 O3E       0.163100
      2 C2           7.4750    -2.1310    15.5730 ca         1 O3E      -0.162000
      3 C3           6.5400    -1.4180    16.2620 ca         1 O3E      -0.058000
      4 C7           3.0180     1.7750    17.8880 ca         1 O3E       0.373200
      5 C8           1.8510     2.0910    19.8370 ca         1 O3E       0.403600
      6 C9           0.8550     2.8900    20.6180 c3         1 O3E      -0.203700
      7 C10         -0.4190     2.0970    20.8540 c          1 O3E       0.684100
      8 C11         -2.3760     2.0640    22.3820 ca         1 O3E       0.067600
      9 C12         -2.9660     0.8630    21.9890 ca         1 O3E      -0.136000
     10 C13         -4.2020     0.5090    22.5020 ca         1 O3E      -0.075000
     11 C14         -4.8710     1.3260    23.4060 ca         1 O3E       0.122400
     12 C15         -6.5420     1.5460    24.9290 ce         1 O3E       0.707500
     13 C16         -5.0910     3.4290    24.7020 c6         1 O3E       0.223100
     14 C19         -4.2800     2.5290    23.7990 ca         1 O3E      -0.125300
     15 C20         -3.0480     2.8880    23.2890 ca         1 O3E      -0.158000
     16 C21         -7.7330     1.1260    25.5930 cg         1 O3E      -0.165200
     17 C22         -8.7440     0.7890    26.1540 c1         1 O3E      -0.057100
     18 C24          2.4390     0.9540    20.4230 ca         1 O3E       0.052800
     19 C27          2.8870    -1.6400    16.9680 ca         1 O3E      -0.353300
     20 C30          5.8090    -3.7490    14.8990 ca         1 O3E      -0.287300
     21 O2          -0.7690     1.2080    20.1030 o          1 O3E      -0.570100
     22 N1          -1.1250     2.5040    21.9390 ns         1 O3E      -0.473100
     23 C17         -5.9540     4.3640    23.8600 c3         1 O3E      -0.099100
     24 C18         -4.2500     4.2080    25.6970 c3         1 O3E      -0.099100
     25 O3          -5.9640     2.6010    25.5100 os         1 O3E      -0.439400
     26 C23         -9.9630     0.3800    26.8230 c3         1 O3E      -0.015000
     27 N2          -6.0980     0.9120    23.9180 nf         1 O3E      -0.623100
     28 N            2.1490     2.4740    18.6120 nb         1 O3E      -0.627000
     29 C25          2.5950    -0.4780    22.3020 c3         1 O3E       0.121700
     30 C26          3.3500     0.2170    19.6840 ca         1 O3E      -0.199000
     31 C6           3.6290     0.6480    18.3950 ca         1 O3E       0.017800
     32 C5           4.1690    -1.1520    16.9900 ca         1 O3E       0.194100
     33 C28          2.6490    -2.8220    16.2470 ca         1 O3E       0.457200
     34 N3           3.5560    -3.4990    15.5920 nb         1 O3E      -0.691000
     35 C29          4.8250    -3.0240    15.6070 ca         1 O3E       0.460600
     36 C4           5.1910    -1.8430    16.2970 ca         1 O3E      -0.199300
     37 O            8.1150    -3.9240    14.2330 os         1 O3E      -0.314900
     38 C            7.8270    -5.0980    13.4960 c3         1 O3E       0.122700
     39 H1           8.5060    -1.8020    15.5490 ha         1 O3E       0.148000
     40 H2           6.8410    -0.5190    16.7820 ha         1 O3E       0.148000
     41 H3           3.2330     2.1230    16.8840 h4         1 O3E       0.041100
     42 H4           1.2790     3.2350    21.5650 hc         1 O3E       0.080700
     43 H5           0.5910     3.7810    20.0440 hc         1 O3E       0.080700
     44 H6          -2.4730     0.2000    21.2970 ha         1 O3E       0.167000
     45 H7          -4.6580    -0.4270    22.2040 ha         1 O3E       0.153000
     46 H8          -2.5930     3.8280    23.5790 ha         1 O3E       0.127000
     47 H9           2.0660    -1.1550    17.4760 ha         1 O3E       0.158000
     48 H10          5.4920    -4.6480    14.3870 ha         1 O3E       0.155000
     49 H11         -0.7380     3.2800    22.4550 hn         1 O3E       0.315500
     50 H12         -6.5830     4.9880    24.4960 hc         1 O3E       0.050867
     51 H13         -5.3130     5.0170    23.2680 hc         1 O3E       0.050867
     52 H14         -6.5950     3.8140    23.1690 hc         1 O3E       0.050867
     53 H15         -3.6240     3.5460    26.2940 hc         1 O3E       0.050867
     54 H16         -3.6040     4.9150    25.1790 hc         1 O3E       0.050867
     55 H17         -4.8920     4.7830    26.3640 hc         1 O3E       0.050867
     56 H18         -9.9060     0.5860    27.8910 hc         1 O3E       0.059367
     57 H19        -10.8200     0.9210    26.4220 hc         1 O3E       0.059367
     58 H20        -10.1420    -0.6860    26.6890 hc         1 O3E       0.059367
     59 H21          2.1580    -0.5170    23.2960 h1         1 O3E       0.048033
     60 H22          2.3310    -1.3900    21.7610 h1         1 O3E       0.048033
     61 H23          3.6820    -0.4190    22.3930 h1         1 O3E       0.048033
     62 H24          3.8420    -0.6630    20.0770 ha         1 O3E       0.159000
     63 H25          1.6380    -3.2150    16.2230 h4         1 O3E       0.019100
     64 H26          8.7610    -5.4110    13.0370 h1         1 O3E       0.044700
     65 H27          7.4630    -5.9010    14.1410 h1         1 O3E       0.044700
     66 H28          7.0900    -4.9110    12.7110 h1         1 O3E       0.044700
     67 O1           4.5480    -0.0280    17.6320 os         1 O3E      -0.244200
     68 O4           2.0590     0.6730    21.6730 os         1 O3E      -0.309900
@<TRIPOS>BOND
     1     1     2 ar  
     2     1    20 ar  
     3     1    37 1   
     4     2     3 ar  
     5     2    39 1   
     6     3    36 ar  
     7     3    40 1   
     8     4    28 ar  
     9     4    31 ar  
    10     4    41 1   
    11     5     6 1   
    12     5    18 ar  
    13     5    28 ar  
    14     6     7 1   
    15     6    42 1   
    16     6    43 1   
    17     7    21 2   
    18     7    22 1   
    19     8     9 ar  
    20     8    15 ar  
    21     8    22 1   
    22     9    10 ar  
    23     9    44 1   
    24    10    11 ar  
    25    10    45 1   
    26    11    14 ar  
    27    11    27 1   
    28    12    16 1   
    29    12    25 1   
    30    12    27 2   
    31    13    14 1   
    32    13    23 1   
    33    13    24 1   
    34    13    25 1   
    35    14    15 ar  
    36    15    46 1   
    37    16    17 3   
    38    17    26 1   
    39    18    30 ar  
    40    18    68 1   
    41    19    32 ar  
    42    19    33 ar  
    43    19    47 1   
    44    20    35 ar  
    45    20    48 1   
    46    22    49 1   
    47    23    50 1   
    48    23    51 1   
    49    23    52 1   
    50    24    53 1   
    51    24    54 1   
    52    24    55 1   
    53    26    56 1   
    54    26    57 1   
    55    26    58 1   
    56    29    59 1   
    57    29    60 1   
    58    29    61 1   
    59    29    68 1   
    60    30    31 ar  
    61    30    62 1   
    62    31    67 1   
    63    32    36 ar  
    64    32    67 1   
    65    33    34 ar  
    66    33    63 1   
    67    34    35 ar  
    68    35    36 ar  
    69    37    38 1   
    70    38    64 1   
    71    38    65 1   
    72    38    66 1   
@<TRIPOS>SUBSTRUCTURE
     1 O3E         1 TEMP              0 ****  ****    0 ROOT
