@<TRIPOS>MOLECULE
O3E
   68    72     1     0     0
SMALL
No Charge or Current Charge


@<TRIPOS>ATOM
      1 C1           7.4280    -3.0200    15.7140 ca         1 O3E       0.163100
      2 C2           7.4190    -2.1420    16.8070 ca         1 O3E      -0.144000
      3 C3           6.2110    -1.7950    17.4280 ca         1 O3E      -0.040000
      4 C7           2.3170     0.5610    17.5930 ca         1 O3E       0.307900
      5 C8           1.0140     1.9740    18.8970 ca         1 O3E       0.338300
      6 C9           0.0260     3.1260    18.9140 c3         1 O3E      -0.203700
      7 C10         -1.3510     2.5980    19.2970 c          1 O3E       0.617100
      8 C11         -2.8790     2.5200    21.3620 ca         1 O3E      -0.025000
      9 C12         -4.0730     2.0470    20.7730 ca         1 O3E      -0.118000
     10 C13         -5.1900     1.7620    21.5770 ca         1 O3E      -0.057000
     11 C14         -5.1240     1.9420    22.9670 ca         1 O3E       0.122400
     12 C15         -6.0830     1.5590    25.0700 ce         1 O3E       0.707500
     13 C16         -3.9150     2.6150    25.1040 c6         1 O3E       0.246300
     14 C19         -3.9400     2.4040    23.5720 ca         1 O3E      -0.125300
     15 C20         -2.8260     2.7040    22.7560 ca         1 O3E      -0.140000
     16 C21         -7.2940     1.1080    25.6800 cg         1 O3E      -0.165200
     17 C22         -8.3050     0.7300    26.2390 c1         1 O3E      -0.057100
     18 C24          1.4720     1.3650    20.1010 ca         1 O3E       0.118100
     19 C27          2.5930    -2.5680    17.0470 ca         1 O3E      -0.270000
     20 C30          6.2130    -3.5550    15.2410 ca         1 O3E      -0.204000
     21 O2          -2.0530     2.0040    18.4880 o          1 O3E      -0.570100
     22 N1          -1.7120     2.8380    20.6160 ns         1 O3E      -0.147000
     23 C17         -4.2520     4.0880    25.4600 c3         1 O3E      -0.099100
     24 C18         -2.5600     2.2260    25.7580 c3         1 O3E      -0.099100
     25 O3          -4.9080     1.7890    25.7490 os         1 O3E      -0.462600
     26 C23         -9.5500     0.2890    26.8770 c3         1 O3E      -0.015000
     27 N2          -6.2380     1.6530    23.7790 nf         1 O3E      -0.623100
     28 N            1.4340     1.5870    17.6670 nb         1 O3E      -0.627000
     29 C25          1.3930     1.2340    22.5720 c3         1 O3E       0.144900
     30 C26          2.3920     0.2960    20.0090 ca         1 O3E      -0.181000
     31 C6           2.8110    -0.1170    18.7340 ca         1 O3E       0.083100
     32 C5           3.7680    -1.9980    17.5520 ca         1 O3E       0.194100
     33 C28          2.6790    -3.4370    15.9560 ca         1 O3E       0.391900
     34 N3           3.8510    -3.7550    15.3660 nb         1 O3E      -0.691000
     35 C29          4.9930    -3.2190    15.8500 ca         1 O3E       0.330000
     36 C4           4.9960    -2.3310    16.9530 ca         1 O3E      -0.134000
     37 O            8.6470    -3.3250    15.1440 os         1 O3E      -0.338100
     38 C            8.7700    -4.2140    14.0190 c3         1 O3E       0.145900
     39 H1           8.3560    -1.7290    17.1730 ha         1 O3E       0.130000
     40 H2           6.2260    -1.1110    18.2750 ha         1 O3E       0.130000
     41 H3           2.6400     0.2810    16.5920 h4         1 O3E       0.041100
     42 H4           0.3640     3.8710    19.6440 hc         1 O3E       0.080700
     43 H5          -0.0370     3.5880    17.9230 hc         1 O3E       0.080700
     44 H6          -4.1600     1.9070    19.7010 ha         1 O3E       0.149000
     45 H7          -6.1090     1.4030    21.1210 ha         1 O3E       0.135000
     46 H8          -1.9110     3.0850    23.2020 ha         1 O3E       0.109000
     47 H9           1.6260    -2.3550    17.4930 ha         1 O3E       0.140000
     48 H10          6.1930    -4.2370    14.3970 ha         1 O3E       0.137000
     49 H11         -0.9990     3.3090    21.1580 hn         1 O3E       0.149000
     50 H12         -4.2960     4.2380    26.5450 hc         1 O3E       0.050867
     51 H13         -3.4960     4.7730    25.0580 hc         1 O3E       0.050867
     52 H14         -5.2200     4.3860    25.0410 hc         1 O3E       0.050867
     53 H15         -2.2550     1.2180    25.4560 hc         1 O3E       0.050867
     54 H16         -1.7580     2.9180    25.4790 hc         1 O3E       0.050867
     55 H17         -2.6310     2.2390    26.8520 hc         1 O3E       0.050867
     56 H18         -9.5390     0.5370    27.9440 hc         1 O3E       0.059367
     57 H19        -10.4110     0.7820    26.4120 hc         1 O3E       0.059367
     58 H20         -9.6680    -0.7960    26.7710 hc         1 O3E       0.059367
     59 H21          0.9020     1.7520    23.4050 h1         1 O3E       0.048033
     60 H22          1.0970     0.1780    22.6060 h1         1 O3E       0.048033
     61 H23          2.4780     1.3020    22.7220 h1         1 O3E       0.048033
     62 H24          2.7800    -0.2100    20.8870 ha         1 O3E       0.141000
     63 H25          1.7830    -3.8970    15.5390 h4         1 O3E       0.019100
     64 H26          9.8220    -4.3160    13.7270 h1         1 O3E       0.044700
     65 H27          8.3890    -5.2130    14.2680 h1         1 O3E       0.044700
     66 H28          8.2130    -3.8290    13.1540 h1         1 O3E       0.044700
     67 O1           3.7210    -1.1480    18.6350 os         1 O3E      -0.244200
     68 O4           1.0110     1.8320    21.3210 os         1 O3E      -0.333100
@<TRIPOS>BOND
     1     1     2 ar  
     2     1    20 ar  
     3     1    37 1   
     4     2     3 ar  
     5     2    39 1   
     6     3    36 ar  
     7     3    40 1   
     8     4    28 ar  
     9     4    31 ar  
    10     4    41 1   
    11     5     6 1   
    12     5    18 ar  
    13     5    28 ar  
    14     6     7 1   
    15     6    42 1   
    16     6    43 1   
    17     7    21 2   
    18     7    22 1   
    19     8     9 ar  
    20     8    15 ar  
    21     8    22 1   
    22     9    10 ar  
    23     9    44 1   
    24    10    11 ar  
    25    10    45 1   
    26    11    14 ar  
    27    11    27 1   
    28    12    16 1   
    29    12    25 1   
    30    12    27 2   
    31    13    14 1   
    32    13    23 1   
    33    13    24 1   
    34    13    25 1   
    35    14    15 ar  
    36    15    46 1   
    37    16    17 3   
    38    17    26 1   
    39    18    30 ar  
    40    18    68 1   
    41    19    32 ar  
    42    19    33 ar  
    43    19    47 1   
    44    20    35 ar  
    45    20    48 1   
    46    22    49 1   
    47    23    50 1   
    48    23    51 1   
    49    23    52 1   
    50    24    53 1   
    51    24    54 1   
    52    24    55 1   
    53    26    56 1   
    54    26    57 1   
    55    26    58 1   
    56    29    59 1   
    57    29    60 1   
    58    29    61 1   
    59    29    68 1   
    60    30    31 ar  
    61    30    62 1   
    62    31    67 1   
    63    32    36 ar  
    64    32    67 1   
    65    33    34 ar  
    66    33    63 1   
    67    34    35 ar  
    68    35    36 ar  
    69    37    38 1   
    70    38    64 1   
    71    38    65 1   
    72    38    66 1   
@<TRIPOS>SUBSTRUCTURE
     1 O3E         1 TEMP              0 ****  ****    0 ROOT
