@<TRIPOS>MOLECULE
O3G
   30    31     1     0     0
SMALL
No Charge or Current Charge


@<TRIPOS>ATOM
      1 N1           0.5370    -0.7790    -0.0350 n7         1 O3G      -0.871400
      2 C4          -1.9200    -0.8250    -0.0080 ca         1 O3G      -0.106300
      3 C5          -0.6440    -1.6550     0.0220 c3         1 O3G       0.212100
      4 C6           1.8340    -1.4710     0.0330 c3         1 O3G       0.209100
      5 C7           2.9770    -0.4640     0.0210 ca         1 O3G      -0.092300
      6 C8           3.5560    -0.0280     1.2300 ca         1 O3G      -0.097500
      7 C10          5.0990     1.3950    -0.0040 ca         1 O3G      -0.107000
      8 C13         -2.4380    -0.3670    -1.2360 ca         1 O3G      -0.072500
      9 C1          -4.2820     0.7050    -0.0680 ca         1 O3G       0.171000
     10 C11          4.5260     0.9650    -1.2130 ca         1 O3G      -0.113500
     11 C12          3.4680     0.0390    -1.2000 ca         1 O3G      -0.097500
     12 C14         -3.6190     0.3980    -1.2650 ca         1 O3G      -0.155000
     13 C2          -3.7740     0.2530     1.1600 ca         1 O3G      -0.155000
     14 C3          -2.5930    -0.5110     1.1910 ca         1 O3G      -0.072500
     15 C9           4.6130     0.8980     1.2170 ca         1 O3G      -0.113500
     16 F1          -5.4160     1.4390    -0.0970 f          1 O3G      -0.181000
     17 H1           0.4860    -0.1320     0.7600 hn         1 O3G       0.419000
     18 H3          -0.6480    -2.3500    -0.8290 h1         1 O3G       0.037200
     19 H4          -0.6290    -2.2610     0.9390 h1         1 O3G       0.037200
     20 H5           1.8990    -2.0770     0.9480 h1         1 O3G       0.036200
     21 H6           1.9490    -2.1550    -0.8200 h1         1 O3G       0.036200
     22 H7           3.1860    -0.4080     2.1810 ha         1 O3G       0.116500
     23 H8           5.9170     2.1120    -0.0140 ha         1 O3G       0.112000
     24 H9          -1.9230    -0.6010    -2.1650 ha         1 O3G       0.122500
     25 H10          4.9000     1.3500    -2.1590 ha         1 O3G       0.111500
     26 H11          3.0270    -0.2880    -2.1390 ha         1 O3G       0.116500
     27 H12         -4.0180     0.7520    -2.2120 ha         1 O3G       0.131500
     28 H13         -4.2930     0.4960     2.0830 ha         1 O3G       0.131500
     29 H14         -2.2020    -0.8590     2.1460 ha         1 O3G       0.122500
     30 H15          5.0560     1.2300     2.1540 ha         1 O3G       0.111500
@<TRIPOS>BOND
     1     1     3 1   
     2     1     4 1   
     3     1    17 1   
     4     2     3 1   
     5     2     8 ar  
     6     2    14 ar  
     7     3    18 1   
     8     3    19 1   
     9     4     5 1   
    10     4    20 1   
    11     4    21 1   
    12     5     6 ar  
    13     5    11 ar  
    14     6    15 ar  
    15     6    22 1   
    16     7    10 ar  
    17     7    15 ar  
    18     7    23 1   
    19     8    12 ar  
    20     8    24 1   
    21     9    12 ar  
    22     9    13 ar  
    23     9    16 1   
    24    10    11 ar  
    25    10    25 1   
    26    11    26 1   
    27    12    27 1   
    28    13    14 ar  
    29    13    28 1   
    30    14    29 1   
    31    15    30 1   
@<TRIPOS>SUBSTRUCTURE
     1 O3G         1 TEMP              0 ****  ****    0 ROOT
