@<TRIPOS>MOLECULE
O3G
   30    31     1     0     0
SMALL
abcg2


@<TRIPOS>ATOM
      1 N1           0.5220    -0.5900     0.3370 n7         1 O3G      -0.871400
      2 C4          -1.9110    -0.7430     0.1800 ca         1 O3G      -0.106300
      3 C5          -0.6280    -1.4440     0.5430 c3         1 O3G       0.212100
      4 C6           1.7830    -1.2680     0.5510 c3         1 O3G       0.209100
      5 C7           2.9550    -0.3870     0.2040 ca         1 O3G      -0.092300
      6 C8           4.0920    -0.3710     1.0070 ca         1 O3G      -0.097500
      7 C10          5.1630     1.1940    -0.4750 ca         1 O3G      -0.107000
      8 C13         -1.9930     0.0430    -0.9680 ca         1 O3G      -0.072500
      9 C1          -4.2900     0.4890    -0.5260 ca         1 O3G       0.171000
     10 C11          4.0290     1.1910    -1.2790 ca         1 O3G      -0.113500
     11 C12          2.9340     0.4080    -0.9410 ca         1 O3G      -0.097500
     12 C14         -3.1790     0.6630    -1.3310 ca         1 O3G      -0.155000
     13 C2          -4.2490    -0.2780     0.6200 ca         1 O3G      -0.155000
     14 C3          -3.0500    -0.8880     0.9660 ca         1 O3G      -0.072500
     15 C9           5.1910     0.4100     0.6700 ca         1 O3G      -0.113500
     16 F1          -5.4440     1.0890    -0.8690 f          1 O3G      -0.181000
     17 H1           0.4620     0.2120     0.9530 hn         1 O3G       0.419000
     18 H3          -0.5110    -2.3220    -0.1010 h1         1 O3G       0.037200
     19 H4          -0.7060    -1.8340     1.5690 h1         1 O3G       0.037200
     20 H5           1.9060    -1.6480     1.5770 h1         1 O3G       0.036200
     21 H6           1.7990    -2.1500    -0.0990 h1         1 O3G       0.036200
     22 H7           4.1190    -0.9740     1.9070 ha         1 O3G       0.116500
     23 H8           6.0160     1.8070    -0.7380 ha         1 O3G       0.112000
     24 H9          -1.1130     0.1770    -1.5840 ha         1 O3G       0.122500
     25 H10          3.9980     1.8000    -2.1730 ha         1 O3G       0.111500
     26 H11          2.0500     0.4140    -1.5660 ha         1 O3G       0.116500
     27 H12         -3.2380     1.2720    -2.2240 ha         1 O3G       0.131500
     28 H13         -5.1310    -0.3950     1.2360 ha         1 O3G       0.131500
     29 H14         -3.0080    -1.4860     1.8680 ha         1 O3G       0.122500
     30 H15          6.0660     0.4090     1.3070 ha         1 O3G       0.111500
@<TRIPOS>BOND
     1     1     3 1   
     2     1     4 1   
     3     1    17 1   
     4     2     3 1   
     5     2     8 ar  
     6     2    14 ar  
     7     3    18 1   
     8     3    19 1   
     9     4     5 1   
    10     4    20 1   
    11     4    21 1   
    12     5     6 ar  
    13     5    11 ar  
    14     6    15 ar  
    15     6    22 1   
    16     7    10 ar  
    17     7    15 ar  
    18     7    23 1   
    19     8    12 ar  
    20     8    24 1   
    21     9    12 ar  
    22     9    13 ar  
    23     9    16 1   
    24    10    11 ar  
    25    10    25 1   
    26    11    26 1   
    27    12    27 1   
    28    13    14 ar  
    29    13    28 1   
    30    14    29 1   
    31    15    30 1   
@<TRIPOS>SUBSTRUCTURE
     1 O3G         1 TEMP              0 ****  ****    0 ROOT
