@<TRIPOS>MOLECULE
O3H
   47    50     1     0     0
SMALL
No Charge or Current Charge


@<TRIPOS>ATOM
      1 C2          18.8730   -13.4710   -13.1800 ca         1 O3H      -0.037000
      2 C3          19.0880   -12.1360   -13.5550 ca         1 O3H      -0.137000
      3 C4          18.1860   -11.4980   -14.4200 ca         1 O3H      -0.073000
      4 C5          17.0700   -12.1990   -14.9080 ca         1 O3H      -0.111000
      5 C6          16.8390   -13.5380   -14.5420 ca         1 O3H       0.196400
      6 C7          15.5410   -15.4340   -14.6870 cc         1 O3H       0.509800
      7 C10         10.9290   -17.2850   -18.4390 c6         1 O3H       0.156800
      8 C11         13.1200   -16.4820   -19.1490 c6         1 O3H       0.156800
      9 C12         13.3380   -17.7630   -20.0180 c6         1 O3H       0.215300
     10 C14         13.1780   -19.8300   -22.1300 ca         1 O3H      -0.229000
     11 C16         10.6590   -20.4270   -23.0230 ca         1 O3H       0.384900
     12 C18         12.0440   -15.5250   -17.1010 c3         1 O3H       0.173800
     13 C19         13.3250   -14.9790   -16.4270 c3         1 O3H       0.056600
     14 C1          17.7500   -14.1700   -13.6730 ca         1 O3H      -0.205600
     15 C13         13.0530   -20.6940   -23.2280 ca         1 O3H      -0.038000
     16 C15         12.0170   -19.3030   -21.5270 ca         1 O3H       0.613900
     17 C17         11.7620   -20.9930   -23.6800 ca         1 O3H      -0.220000
     18 C8          17.4980   -15.5810   -13.2920 c          1 O3H       0.579600
     19 C9          11.0960   -18.5860   -19.2870 c6         1 O3H       0.215300
     20 N1          15.7000   -14.1690   -15.0720 nd         1 O3H      -0.658100
     21 N2          16.3830   -16.1050   -13.8470 ns         1 O3H      -0.420400
     22 N3          12.2300   -16.7200   -17.9690 n3         1 O3H      -0.729600
     23 N4          12.0580   -18.4230   -20.4290 nh         1 O3H      -0.772300
     24 N5          10.7790   -19.5960   -21.9650 nb         1 O3H      -0.748000
     25 O1          18.2160   -16.2300   -12.5470 o          1 O3H      -0.534000
     26 S1          14.1220   -16.2530   -15.3340 ss         1 O3H      -0.213200
     27 H21         19.5770   -13.9600   -12.5080 ha         1 O3H       0.135000
     28 H31         19.9540   -11.5970   -13.1760 ha         1 O3H       0.120000
     29 H4          18.3500   -10.4630   -14.7140 ha         1 O3H       0.116000
     30 H5          16.3750   -11.6990   -15.5770 ha         1 O3H       0.129000
     31 H10         10.3960   -16.5410   -19.0500 h1         1 O3H       0.042950
     32 H93         10.2820   -17.5130   -17.5800 h1         1 O3H       0.042950
     33 H94         14.1070   -16.1250   -18.8270 h1         1 O3H       0.042950
     34 H11         12.6900   -15.6970   -19.7900 h1         1 O3H       0.042950
     35 H95         13.9530   -18.4720   -19.4450 h1         1 O3H       0.055450
     36 H12         13.9180   -17.4670   -20.9050 h1         1 O3H       0.055450
     37 H16          9.6440   -20.6450   -23.3550 h4         1 O3H       0.014100
     38 H18         11.5940   -14.7100   -17.6850 h1         1 O3H       0.047200
     39 H96         11.3330   -15.7660   -16.2990 h1         1 O3H       0.047200
     40 H19         14.0420   -14.6530   -17.1900 h1         1 O3H       0.083200
     41 H97         13.0600   -14.1070   -15.8170 h1         1 O3H       0.083200
     42 H13         13.9310   -21.1180   -23.7120 ha         1 O3H       0.113000
     43 H17         11.6080   -21.6570   -24.5260 ha         1 O3H       0.124000
     44 H92         10.0960   -18.8780   -19.6400 h1         1 O3H       0.055450
     45 H91         11.4480   -19.3900   -18.6240 h1         1 O3H       0.055450
     46 H22         16.1770   -17.0640   -13.6130 hn         1 O3H       0.339500
     47 H14         14.1650   -19.5880   -21.7530 ha         1 O3H       0.120000
@<TRIPOS>BOND
     1     1     2 ar  
     2     1    14 ar  
     3     1    27 1   
     4     2     3 ar  
     5     2    28 1   
     6     3     4 ar  
     7     3    29 1   
     8     4     5 ar  
     9     4    30 1   
    10     5    14 ar  
    11     5    20 1   
    12     6    20 2   
    13     6    21 1   
    14     6    26 1   
    15     7    19 1   
    16     7    22 1   
    17     7    31 1   
    18     7    32 1   
    19     8     9 1   
    20     8    22 1   
    21     8    33 1   
    22     8    34 1   
    23     9    23 1   
    24     9    35 1   
    25     9    36 1   
    26    10    15 ar  
    27    10    16 ar  
    28    10    47 1   
    29    11    17 ar  
    30    11    24 ar  
    31    11    37 1   
    32    12    13 1   
    33    12    22 1   
    34    12    38 1   
    35    12    39 1   
    36    13    26 1   
    37    13    40 1   
    38    13    41 1   
    39    14    18 1   
    40    15    17 ar  
    41    15    42 1   
    42    16    23 1   
    43    16    24 ar  
    44    17    43 1   
    45    18    21 1   
    46    18    25 2   
    47    19    23 1   
    48    19    44 1   
    49    19    45 1   
    50    21    46 1   
@<TRIPOS>SUBSTRUCTURE
     1 O3H         1 TEMP              0 ****  ****    0 ROOT
