@<TRIPOS>MOLECULE
O3H
   47    50     1     0     0
SMALL
abcg2


@<TRIPOS>ATOM
      1 C2          18.7030   -13.8020   -13.0880 ca         1 O3H      -0.037000
      2 C3          18.9090   -12.4410   -13.1450 ca         1 O3H      -0.137000
      3 C4          18.0540   -11.6410   -13.9120 ca         1 O3H      -0.073000
      4 C5          17.0060   -12.1980   -14.6120 ca         1 O3H      -0.111000
      5 C6          16.7830   -13.5810   -14.5650 ca         1 O3H       0.196400
      6 C7          15.5460   -15.3730   -15.2230 cc         1 O3H       0.509800
      7 C10         11.0180   -17.1290   -18.4730 c6         1 O3H       0.156800
      8 C11         13.0360   -16.2800   -19.3670 c6         1 O3H       0.156800
      9 C12         13.3310   -17.6040   -20.0490 c6         1 O3H       0.215300
     10 C14         13.1330   -19.5440   -22.1560 ca         1 O3H      -0.229000
     11 C16         10.8460   -20.9880   -22.2600 ca         1 O3H       0.384900
     12 C18         12.0880   -15.2650   -17.3890 c3         1 O3H       0.173800
     13 C19         13.3990   -14.7490   -16.8190 c3         1 O3H       0.056600
     14 C1          17.6440   -14.3790   -13.7950 ca         1 O3H      -0.205600
     15 C13         12.9880   -20.5090   -23.1310 ca         1 O3H      -0.038000
     16 C15         12.0720   -19.3260   -21.2530 ca         1 O3H       0.613900
     17 C17         11.8180   -21.2570   -23.2050 ca         1 O3H      -0.220000
     18 C8          17.4140   -15.8170   -13.7440 c          1 O3H       0.579600
     19 C9          11.2670   -18.4780   -19.1140 c6         1 O3H       0.215300
     20 N1          15.7310   -14.1050   -15.2790 nd         1 O3H      -0.658100
     21 N2          16.3320   -16.2230   -14.4970 ns         1 O3H      -0.420400
     22 N3          12.2720   -16.4790   -18.1540 n3         1 O3H      -0.729600
     23 N4          12.1130   -18.3480   -20.2890 nh         1 O3H      -0.772300
     24 N5          10.9610   -20.0630   -21.3170 nb         1 O3H      -0.748000
     25 O1          18.0770   -16.6200   -13.1150 o          1 O3H      -0.534000
     26 S1          14.2650   -16.1770   -16.1010 ss         1 O3H      -0.213200
     27 H21         19.3570   -14.4320   -12.5000 ha         1 O3H       0.135000
     28 H31         19.7290   -11.9910   -12.6030 ha         1 O3H       0.120000
     29 H4          18.2180   -10.5720   -13.9570 ha         1 O3H       0.116000
     30 H5          16.3430   -11.5830   -15.2070 ha         1 O3H       0.129000
     31 H10         10.3990   -16.5110   -19.1440 h1         1 O3H       0.042950
     32 H93         10.4480   -17.2840   -17.5540 h1         1 O3H       0.042950
     33 H94         13.9930   -15.8100   -19.1380 h1         1 O3H       0.042950
     34 H11         12.5050   -15.6170   -20.0720 h1         1 O3H       0.042950
     35 H95         14.0350   -18.1830   -19.4360 h1         1 O3H       0.055450
     36 H12         13.8230   -17.3740   -20.9920 h1         1 O3H       0.055450
     37 H16          9.9170   -21.5500   -22.2590 h4         1 O3H       0.014100
     38 H18         11.6280   -14.4530   -17.9750 h1         1 O3H       0.047200
     39 H96         11.4060   -15.4870   -16.5660 h1         1 O3H       0.047200
     40 H19         14.0350   -14.2870   -17.5720 h1         1 O3H       0.083200
     41 H97         13.2120   -14.0130   -16.0400 h1         1 O3H       0.083200
     42 H13         13.7980   -20.6840   -23.8280 ha         1 O3H       0.113000
     43 H17         11.6730   -22.0230   -23.9530 ha         1 O3H       0.124000
     44 H92         10.3180   -18.9210   -19.4030 h1         1 O3H       0.055450
     45 H91         11.7370   -19.1460   -18.3790 h1         1 O3H       0.055450
     46 H22         16.1200   -17.2130   -14.4870 hn         1 O3H       0.339500
     47 H14         14.0560   -18.9890   -22.1000 ha         1 O3H       0.120000
@<TRIPOS>BOND
     1     1     2 ar  
     2     1    14 ar  
     3     1    27 1   
     4     2     3 ar  
     5     2    28 1   
     6     3     4 ar  
     7     3    29 1   
     8     4     5 ar  
     9     4    30 1   
    10     5    14 ar  
    11     5    20 1   
    12     6    20 2   
    13     6    21 1   
    14     6    26 1   
    15     7    19 1   
    16     7    22 1   
    17     7    31 1   
    18     7    32 1   
    19     8     9 1   
    20     8    22 1   
    21     8    33 1   
    22     8    34 1   
    23     9    23 1   
    24     9    35 1   
    25     9    36 1   
    26    10    15 ar  
    27    10    16 ar  
    28    10    47 1   
    29    11    17 ar  
    30    11    24 ar  
    31    11    37 1   
    32    12    13 1   
    33    12    22 1   
    34    12    38 1   
    35    12    39 1   
    36    13    26 1   
    37    13    40 1   
    38    13    41 1   
    39    14    18 1   
    40    15    17 ar  
    41    15    42 1   
    42    16    23 1   
    43    16    24 ar  
    44    17    43 1   
    45    18    21 1   
    46    18    25 2   
    47    19    23 1   
    48    19    44 1   
    49    19    45 1   
    50    21    46 1   
@<TRIPOS>SUBSTRUCTURE
     1 O3H         1 TEMP              0 ****  ****    0 ROOT
