@<TRIPOS>MOLECULE
O3I
   44    46     1     0     0
SMALL
abcg2


@<TRIPOS>ATOM
      1 N1           6.9620     0.9920    17.0870 nb         1 O3I      -0.642000
      2 C4          13.2590     2.9300    23.4320 cp         1 O3I      -0.051000
      3 C5          12.5790     3.6750    24.3930 ca         1 O3I       0.142000
      4 C6          12.9880     4.9510    24.7420 ca         1 O3I       0.125000
      5 C7          12.8390     1.5640    23.0480 cp         1 O3I      -0.025000
      6 C8          13.8090     0.5700    22.8800 ca         1 O3I      -0.082000
      7 C10         12.0870    -1.0100    22.2420 ca         1 O3I      -0.078000
      8 C13          9.2390     0.1520    20.7290 c          1 O3I       0.601100
      9 C15          7.6890     0.6970    18.1680 ca         1 O3I       0.317900
     10 C17          4.9870     0.7180    18.4010 ca         1 O3I      -0.138000
     11 C20         11.5000     1.2510    22.8140 ca         1 O3I      -0.068000
     12 O           10.0280     0.5340    19.8780 o          1 O3I      -0.561100
     13 C14          7.1240     0.4020    19.4140 ca         1 O3I      -0.072000
     14 C18          5.7220     0.4080    19.5380 ca         1 O3I      -0.095300
     15 C19          5.0410     0.0980    20.8390 c3         1 O3I      -0.052800
     16 C16          5.6340     1.0030    17.2070 ca         1 O3I       0.309900
     17 C12          9.6750    -0.3240    22.1150 c3         1 O3I      -0.111100
     18 C11         11.1170    -0.0250    22.4070 ca         1 O3I      -0.063300
     19 C9          13.4160    -0.6960    22.4830 ca         1 O3I       0.124000
     20 CL          14.6350    -1.9410    22.2850 cl         1 O3I      -0.208000
     21 C3          14.3710     3.5410    22.8430 ca         1 O3I      -0.087000
     22 C2          14.7730     4.8210    23.1950 ca         1 O3I      -0.102000
     23 F           11.5140     3.1590    25.0440 f          1 O3I      -0.165000
     24 F1          12.2840     5.6070    25.6910 f          1 O3I      -0.166000
     25 C1          14.0870     5.5630    24.1580 ca         1 O3I      -0.081300
     26 C           14.4970     6.9490    24.5620 c3         1 O3I      -0.044800
     27 H1          14.8510     0.7810    23.0720 ha         1 O3I       0.133000
     28 H2          11.8090    -2.0080    21.9290 ha         1 O3I       0.131000
     29 H3           8.7610     0.6930    18.0530 h4         1 O3I       0.054100
     30 H4           3.9060     0.7370    18.4490 ha         1 O3I       0.121000
     31 H5          10.7430     2.0150    22.9270 ha         1 O3I       0.126000
     32 H6           7.3630    -0.2120    21.3560 hn         1 O3I       0.150000
     33 H7           5.2730    -0.9160    21.1790 hc         1 O3I       0.046367
     34 H8           5.3560     0.7870    21.6270 hc         1 O3I       0.046367
     35 H9           3.9600     0.1750    20.7320 hc         1 O3I       0.046367
     36 H10          5.0640     1.2460    16.3170 h4         1 O3I       0.022100
     37 H11          9.0270     0.1390    22.8630 hc         1 O3I       0.069200
     38 H12          9.4910    -1.4000    22.1600 hc         1 O3I       0.069200
     39 H13         14.9180     3.0010    22.0820 ha         1 O3I       0.128000
     40 H14         15.6330     5.2640    22.7100 ha         1 O3I       0.124000
     41 H15         13.6840     7.6610    24.4040 hc         1 O3I       0.052700
     42 H16         14.7570     6.9870    25.6220 hc         1 O3I       0.052700
     43 H17         15.3590     7.2730    23.9820 hc         1 O3I       0.052700
     44 N            7.8880     0.0860    20.5480 ns         1 O3I      -0.151000
@<TRIPOS>BOND
     1     1     9 ar  
     2     1    16 ar  
     3     2     3 ar  
     4     2     5 1   
     5     2    21 ar  
     6     3     4 ar  
     7     3    23 1   
     8     4    24 1   
     9     4    25 ar  
    10     5     6 ar  
    11     5    11 ar  
    12     6    19 ar  
    13     6    27 1   
    14     7    18 ar  
    15     7    19 ar  
    16     7    28 1   
    17     8    12 2   
    18     8    17 1   
    19     8    44 1   
    20     9    13 ar  
    21     9    29 1   
    22    10    14 ar  
    23    10    16 ar  
    24    10    30 1   
    25    11    18 ar  
    26    11    31 1   
    27    13    14 ar  
    28    13    44 1   
    29    14    15 1   
    30    15    33 1   
    31    15    34 1   
    32    15    35 1   
    33    16    36 1   
    34    17    18 1   
    35    17    37 1   
    36    17    38 1   
    37    19    20 1   
    38    21    22 ar  
    39    21    39 1   
    40    22    25 ar  
    41    22    40 1   
    42    25    26 1   
    43    26    41 1   
    44    26    42 1   
    45    26    43 1   
    46    32    44 1   
@<TRIPOS>SUBSTRUCTURE
     1 O3I         1 TEMP              0 ****  ****    0 ROOT
