@<TRIPOS>MOLECULE
O3I
   44    46     1     0     0
SMALL
No Charge or Current Charge


@<TRIPOS>ATOM
      1 N1           6.8100     0.3250    17.3820 nb         1 O3I      -0.642000
      2 C4          12.6400     2.7060    23.2230 cp         1 O3I      -0.051000
      3 C5          11.8610     3.2070    24.3020 ca         1 O3I       0.142000
      4 C6          11.9230     4.5670    24.6670 ca         1 O3I       0.125000
      5 C7          12.5960     1.2690    22.8070 cp         1 O3I      -0.025000
      6 C8          13.7890     0.5650    22.5160 ca         1 O3I      -0.082000
      7 C10         12.5260    -1.4470    21.9870 ca         1 O3I      -0.078000
      8 C13          9.3770    -1.1990    20.7340 c          1 O3I       0.601100
      9 C15          7.5560    -0.2000    18.3840 ca         1 O3I       0.317900
     10 C17          6.1330     2.0930    18.8890 ca         1 O3I      -0.138000
     11 C20         11.3660     0.5780    22.6690 ca         1 O3I      -0.068000
     12 O            9.7430    -1.8010    19.7320 o          1 O3I      -0.561100
     13 C14          7.6410     0.3760    19.6790 ca         1 O3I      -0.072000
     14 C18          6.9040     1.5540    19.9360 ca         1 O3I      -0.095300
     15 C19          6.9360     2.2420    21.2980 c3         1 O3I      -0.052800
     16 C16          6.1150     1.4540    17.6390 ca         1 O3I       0.309900
     17 C12          9.9840    -1.4840    22.1130 c3         1 O3I      -0.111100
     18 C11         11.3240    -0.7710    22.2640 ca         1 O3I      -0.063300
     19 C9          13.7540    -0.7790    22.1130 ca         1 O3I       0.124000
     20 Cl          15.2540    -1.6280    21.7620 cl         1 O3I      -0.208000
     21 C3          13.4810     3.6170    22.5380 ca         1 O3I      -0.087000
     22 C2          13.5410     4.9730    22.9030 ca         1 O3I      -0.102000
     23 F           11.0670     2.3740    25.0160 f          1 O3I      -0.165000
     24 F1          11.1740     5.0180    25.7020 f          1 O3I      -0.166000
     25 C1          12.7610     5.4600    23.9690 ca         1 O3I      -0.081300
     26 C           12.8290     6.9310    24.3620 c3         1 O3I      -0.044800
     27 H1          14.7500     1.0630    22.6130 ha         1 O3I       0.133000
     28 H2          12.5130    -2.4860    21.6690 ha         1 O3I       0.131000
     29 H3           8.0830    -1.1160    18.1300 h4         1 O3I       0.054100
     30 H4           5.5510     2.9990    19.0340 ha         1 O3I       0.121000
     31 H5          10.4350     1.1040    22.8650 ha         1 O3I       0.126000
     32 H6           8.2590     0.2310    21.6340 hn         1 O3I       0.150000
     33 H7           6.5450     1.5830    22.0820 hc         1 O3I       0.046367
     34 H8           7.9580     2.5280    21.5730 hc         1 O3I       0.046367
     35 H9           6.3290     3.1550    21.3050 hc         1 O3I       0.046367
     36 H10          5.5230     1.8580    16.8180 h4         1 O3I       0.022100
     37 H11          9.3040    -1.1280    22.8970 hc         1 O3I       0.069200
     38 H12         10.1240    -2.5670    22.2190 hc         1 O3I       0.069200
     39 H13         14.0860     3.2700    21.7040 ha         1 O3I       0.128000
     40 H14         14.1940     5.6460    22.3510 ha         1 O3I       0.124000
     41 H15         11.8430     7.4040    24.2820 hc         1 O3I       0.052700
     42 H16         13.1730     7.0450    25.3970 hc         1 O3I       0.052700
     43 H17         13.5180     7.4940    23.7210 hc         1 O3I       0.052700
     44 N            8.4250    -0.1870    20.7280 ns         1 O3I      -0.151000
@<TRIPOS>BOND
     1     1     9 ar  
     2     1    16 ar  
     3     2     3 ar  
     4     2     5 1   
     5     2    21 ar  
     6     3     4 ar  
     7     3    23 1   
     8     4    24 1   
     9     4    25 ar  
    10     5     6 ar  
    11     5    11 ar  
    12     6    19 ar  
    13     6    27 1   
    14     7    18 ar  
    15     7    19 ar  
    16     7    28 1   
    17     8    12 2   
    18     8    17 1   
    19     8    44 1   
    20     9    13 ar  
    21     9    29 1   
    22    10    14 ar  
    23    10    16 ar  
    24    10    30 1   
    25    11    18 ar  
    26    11    31 1   
    27    13    14 ar  
    28    13    44 1   
    29    14    15 1   
    30    15    33 1   
    31    15    34 1   
    32    15    35 1   
    33    16    36 1   
    34    17    18 1   
    35    17    37 1   
    36    17    38 1   
    37    19    20 1   
    38    21    22 ar  
    39    21    39 1   
    40    22    25 ar  
    41    22    40 1   
    42    25    26 1   
    43    26    41 1   
    44    26    42 1   
    45    26    43 1   
    46    32    44 1   
@<TRIPOS>SUBSTRUCTURE
     1 O3I         1 TEMP              0 ****  ****    0 ROOT
