@<TRIPOS>MOLECULE
O3J
   40    41     1     0     0
SMALL
bcc


@<TRIPOS>ATOM
      1 N1           1.1270     0.5900    -0.0500 n3         1 O3J      -0.719600
      2 C4          -0.0600     1.0920     0.6180 c3         1 O3J       0.169800
      3 C5          -1.3380     0.4010     0.1640 c3         1 O3J      -0.075400
      4 C6          -2.5650     0.9650     0.8830 c3         1 O3J      -0.032100
      5 C7          -3.8450     0.3680     0.3710 ca         1 O3J      -0.078300
      6 C8          -4.5720     0.9970    -0.6370 ca         1 O3J      -0.125000
      7 C10         -6.1890    -0.7860    -0.6450 ca         1 O3J      -0.129000
      8 C13          1.5440    -0.7030     0.4600 c6         1 O3J       0.148300
      9 N            3.8180    -0.2870    -0.3230 n          1 O3J      -0.483800
     10 C            6.1310     0.4350     0.0120 c3         1 O3J      -0.177100
     11 O            5.3460    -1.7810     0.3970 o          1 O3J      -0.608100
     12 C1           5.0680    -0.6400     0.0460 c          1 O3J       0.675100
     13 C11         -5.4730    -1.4250     0.3600 ca         1 O3J      -0.127000
     14 C12         -4.3120    -0.8510     0.8620 ca         1 O3J      -0.125000
     15 C14          2.7270    -1.2440    -0.3240 c6         1 O3J       0.098500
     16 C2           3.4160     1.0270    -0.7820 c6         1 O3J       0.098500
     17 C3           2.2280     1.5300     0.0190 c6         1 O3J       0.148300
     18 C9          -5.7340     0.4280    -1.1430 ca         1 O3J      -0.127000
     19 H2           0.0340     1.0200     1.7160 h1         1 O3J       0.029700
     20 H3          -0.1490     2.1570     0.3900 h1         1 O3J       0.029700
     21 H4          -1.4490     0.5350    -0.9160 hc         1 O3J       0.051700
     22 H5          -1.2860    -0.6770     0.3420 hc         1 O3J       0.051700
     23 H6          -2.4700     0.7810     1.9570 hc         1 O3J       0.045200
     24 H7          -2.5900     2.0510     0.7530 hc         1 O3J       0.045200
     25 H8          -4.2270     1.9470    -1.0300 ha         1 O3J       0.128000
     26 H9          -7.0950    -1.2310    -1.0360 ha         1 O3J       0.130000
     27 H10          1.8140    -0.6480     1.5290 h1         1 O3J       0.039700
     28 H11          0.7240    -1.4170     0.3730 h1         1 O3J       0.039700
     29 H12          5.8970     1.2570     0.6900 hc         1 O3J       0.059033
     30 H13          7.0800     0.0020     0.3170 hc         1 O3J       0.059033
     31 H14          6.2530     0.8570    -0.9860 hc         1 O3J       0.059033
     32 H15         -5.8190    -2.3710     0.7560 ha         1 O3J       0.130000
     33 H16         -3.7600    -1.3550     1.6470 ha         1 O3J       0.128000
     34 H17          3.0620    -2.1810     0.1120 h1         1 O3J       0.059200
     35 H18          2.4220    -1.4440    -1.3570 h1         1 O3J       0.059200
     36 H19          4.2330     1.7370    -0.6960 h1         1 O3J       0.059200
     37 H20          3.1410     0.9710    -1.8410 h1         1 O3J       0.059200
     38 H21          1.9100     2.4870    -0.4000 h1         1 O3J       0.039700
     39 H22          2.5500     1.7200     1.0580 h1         1 O3J       0.039700
     40 H23         -6.2860     0.9360    -1.9220 ha         1 O3J       0.130000
@<TRIPOS>BOND
     1     1     2 1   
     2     1     8 1   
     3     1    17 1   
     4     2     3 1   
     5     2    19 1   
     6     2    20 1   
     7     3     4 1   
     8     3    21 1   
     9     3    22 1   
    10     4     5 1   
    11     4    23 1   
    12     4    24 1   
    13     5     6 ar  
    14     5    14 ar  
    15     6    18 ar  
    16     6    25 1   
    17     7    13 ar  
    18     7    18 ar  
    19     7    26 1   
    20     8    15 1   
    21     8    27 1   
    22     8    28 1   
    23     9    12 1   
    24     9    15 1   
    25     9    16 1   
    26    10    12 1   
    27    10    29 1   
    28    10    30 1   
    29    10    31 1   
    30    11    12 2   
    31    13    14 ar  
    32    13    32 1   
    33    14    33 1   
    34    15    34 1   
    35    15    35 1   
    36    16    17 1   
    37    16    36 1   
    38    16    37 1   
    39    17    38 1   
    40    17    39 1   
    41    18    40 1   
@<TRIPOS>SUBSTRUCTURE
     1 O3J         1 TEMP              0 ****  ****    0 ROOT
