@<TRIPOS>MOLECULE
O3J
   40    41     1     0     0
SMALL
No Charge or Current Charge


@<TRIPOS>ATOM
      1 N1           1.1280     0.7310     0.1210 n3         1 O3J      -0.719600
      2 C4          -0.1440     1.2300     0.7010 c3         1 O3J       0.169800
      3 C5          -1.4120     0.4880     0.2200 c3         1 O3J      -0.075400
      4 C6          -2.7160     1.1450     0.7170 c3         1 O3J      -0.032100
      5 C7          -3.9530     0.3960     0.2390 ca         1 O3J      -0.078300
      6 C8          -4.5500     0.7230    -0.9940 ca         1 O3J      -0.107000
      7 C10         -6.2370    -1.0000    -0.6500 ca         1 O3J      -0.111000
      8 C13          1.4630    -0.6640     0.5190 c6         1 O3J       0.148300
      9 N            3.9290    -0.2700    -0.1150 n          1 O3J      -0.416800
     10 C            6.3980     0.1980    -0.4550 c3         1 O3J      -0.177100
     11 O            5.3680    -1.9370    -0.7700 o          1 O3J      -0.608100
     12 C1           5.2030    -0.7580    -0.4860 c          1 O3J       0.608100
     13 C11         -5.6440    -1.3310     0.5800 ca         1 O3J      -0.109000
     14 C12         -4.5060    -0.6360     1.0230 ca         1 O3J      -0.107000
     15 C14          2.7490    -1.1880    -0.1770 c6         1 O3J       0.098500
     16 C2           3.5930     1.1840    -0.2350 c6         1 O3J       0.098500
     17 C3           2.2730     1.6140     0.4620 c6         1 O3J       0.148300
     18 C9          -5.6890     0.0270    -1.4370 ca         1 O3J      -0.109000
     19 H2          -0.1010     1.1810     1.7980 h1         1 O3J       0.029700
     20 H3          -0.2640     2.2890     0.4350 h1         1 O3J       0.029700
     21 H4          -1.4170     0.4620    -0.8760 hc         1 O3J       0.051700
     22 H5          -1.3910    -0.5500     0.5700 hc         1 O3J       0.051700
     23 H6          -2.7030     1.1890     1.8130 hc         1 O3J       0.045200
     24 H7          -2.7510     2.1860     0.3700 hc         1 O3J       0.045200
     25 H8          -4.1300     1.5150    -1.6110 ha         1 O3J       0.110000
     26 H9          -7.1180    -1.5380    -0.9930 ha         1 O3J       0.112000
     27 H10          1.6060    -0.7210     1.6080 h1         1 O3J       0.039700
     28 H11          0.6460    -1.3540     0.2680 h1         1 O3J       0.039700
     29 H12          6.4200     0.7190     0.5090 hc         1 O3J       0.059033
     30 H13          7.3470    -0.3110    -0.6590 hc         1 O3J       0.059033
     31 H14          6.2270     1.0120    -1.1670 hc         1 O3J       0.059033
     32 H15         -6.0670    -2.1270     1.1900 ha         1 O3J       0.112000
     33 H16         -4.0520    -0.9010     1.9760 ha         1 O3J       0.110000
     34 H17          3.0130    -2.1560     0.2720 h1         1 O3J       0.059200
     35 H18          2.5180    -1.3760    -1.2340 h1         1 O3J       0.059200
     36 H19          4.4030     1.7970     0.1820 h1         1 O3J       0.059200
     37 H20          3.5180     1.4320    -1.3040 h1         1 O3J       0.059200
     38 H21          2.0540     2.6530     0.1760 h1         1 O3J       0.039700
     39 H22          2.4370     1.6110     1.5500 h1         1 O3J       0.039700
     40 H23         -6.1450     0.2840    -2.3910 ha         1 O3J       0.112000
@<TRIPOS>BOND
     1     1     2 1   
     2     1     8 1   
     3     1    17 1   
     4     2     3 1   
     5     2    19 1   
     6     2    20 1   
     7     3     4 1   
     8     3    21 1   
     9     3    22 1   
    10     4     5 1   
    11     4    23 1   
    12     4    24 1   
    13     5     6 ar  
    14     5    14 ar  
    15     6    18 ar  
    16     6    25 1   
    17     7    13 ar  
    18     7    18 ar  
    19     7    26 1   
    20     8    15 1   
    21     8    27 1   
    22     8    28 1   
    23     9    12 1   
    24     9    15 1   
    25     9    16 1   
    26    10    12 1   
    27    10    29 1   
    28    10    30 1   
    29    10    31 1   
    30    11    12 2   
    31    13    14 ar  
    32    13    32 1   
    33    14    33 1   
    34    15    34 1   
    35    15    35 1   
    36    16    17 1   
    37    16    36 1   
    38    16    37 1   
    39    17    38 1   
    40    17    39 1   
    41    18    40 1   
@<TRIPOS>SUBSTRUCTURE
     1 O3J         1 TEMP              0 ****  ****    0 ROOT
