@<TRIPOS>MOLECULE
O3M
   35    37     1     0     0
SMALL
No Charge or Current Charge


@<TRIPOS>ATOM
      1 C4           0.8590     1.7850    -0.7680 c3         1 O3M       0.222100
      2 C5          -1.5210     2.2700    -0.3490 c6         1 O3M       0.168800
      3 C6          -2.7550     1.8690     0.4940 c6         1 O3M      -0.028100
      4 C7          -3.1070     0.3840     0.3800 ca         1 O3M      -0.066300
      5 C8          -4.3600    -0.0770     0.8250 ca         1 O3M      -0.110000
      6 C10         -3.7520    -2.3520     0.2140 ca         1 O3M      -0.111000
      7 C13         -0.7990    -0.0480    -0.6480 c6         1 O3M       0.209100
      8 C15          3.7600    -0.6980    -1.1880 ca         1 O3M      -0.179500
      9 N           -0.4070     1.3080    -0.1670 n3         1 O3M      -0.716600
     10 C            4.2470    -0.7820     0.1240 ca         1 O3M       0.140100
     11 O            5.3100    -1.5900     0.3980 oh         1 O3M      -0.535100
     12 C1           3.6410    -0.0380     1.1490 ca         1 O3M      -0.179500
     13 C11         -2.4980    -1.8970    -0.2270 ca         1 O3M      -0.108000
     14 C12         -2.1670    -0.5300    -0.1440 ca         1 O3M      -0.073300
     15 C14          2.6640     0.1330    -1.4820 ca         1 O3M      -0.057000
     16 C2           2.5440     0.7930     0.8580 ca         1 O3M      -0.057000
     17 C3           2.0500     0.8830    -0.4580 ca         1 O3M      -0.127300
     18 C9          -4.6830    -1.4420     0.7410 ca         1 O3M      -0.110000
     19 H1           0.7470     1.8760    -1.8570 h1         1 O3M       0.036700
     20 H2           1.0920     2.7900    -0.3900 h1         1 O3M       0.036700
     21 H3          -1.8100     2.3150    -1.4100 h1         1 O3M       0.033200
     22 H4          -1.2110     3.2840    -0.0560 h1         1 O3M       0.033200
     23 H5          -2.5570     2.1040     1.5480 hc         1 O3M       0.054200
     24 H6          -3.6130     2.4870     0.1970 hc         1 O3M       0.054200
     25 H7          -5.0840     0.6220     1.2380 ha         1 O3M       0.109000
     26 H8          -4.0020    -3.4090     0.1480 ha         1 O3M       0.112000
     27 H9          -0.8270    -0.0600    -1.7480 h1         1 O3M       0.044200
     28 H10         -0.0430    -0.7870    -0.3440 h1         1 O3M       0.044200
     29 H11          4.2300    -1.2750    -1.9800 ha         1 O3M       0.120500
     30 H13          5.5100    -1.5240     1.3560 ho         1 O3M       0.464000
     31 H14          4.0110    -0.0980     2.1690 ha         1 O3M       0.120500
     32 H15         -1.7820    -2.6070    -0.6360 ha         1 O3M       0.110000
     33 H16          2.2910     0.1910    -2.5020 ha         1 O3M       0.117500
     34 H17          2.0730     1.3660     1.6540 ha         1 O3M       0.117500
     35 H18         -5.6530    -1.7940     1.0850 ha         1 O3M       0.111000
@<TRIPOS>BOND
     1     1     9 1   
     2     1    17 1   
     3     1    19 1   
     4     1    20 1   
     5     2     3 1   
     6     2     9 1   
     7     2    21 1   
     8     2    22 1   
     9     3     4 1   
    10     3    23 1   
    11     3    24 1   
    12     4     5 ar  
    13     4    14 ar  
    14     5    18 ar  
    15     5    25 1   
    16     6    13 ar  
    17     6    18 ar  
    18     6    26 1   
    19     7     9 1   
    20     7    14 1   
    21     7    27 1   
    22     7    28 1   
    23     8    10 ar  
    24     8    15 ar  
    25     8    29 1   
    26    10    11 1   
    27    10    12 ar  
    28    11    30 1   
    29    12    16 ar  
    30    12    31 1   
    31    13    14 ar  
    32    13    32 1   
    33    15    17 ar  
    34    15    33 1   
    35    16    17 ar  
    36    16    34 1   
    37    18    35 1   
@<TRIPOS>SUBSTRUCTURE
     1 O3M         1 TEMP              0 ****  ****    0 ROOT
