@<TRIPOS>MOLECULE
O3M
   35    37     1     0     0
SMALL
bcc


@<TRIPOS>ATOM
      1 C4           0.7990     1.6980    -0.8860 c3         1 O3M       0.222100
      2 C5          -1.5030     2.2100    -0.3820 c6         1 O3M       0.168800
      3 C6          -2.6290     1.8460     0.5690 c6         1 O3M      -0.028100
      4 C7          -3.0160     0.3990     0.4430 ca         1 O3M      -0.066300
      5 C8          -4.2360    -0.0620     0.9360 ca         1 O3M      -0.128000
      6 C10         -3.7280    -2.2930     0.2140 ca         1 O3M      -0.129000
      7 C13         -0.8310    -0.0480    -0.7430 c6         1 O3M       0.209100
      8 C15          3.8440    -0.5800    -1.1350 ca         1 O3M      -0.197500
      9 N           -0.4240     1.2490    -0.2480 n3         1 O3M      -0.716600
     10 C            4.1960    -0.7250     0.2030 ca         1 O3M       0.140100
     11 O            5.2710    -1.4860     0.4970 oh         1 O3M      -0.496100
     12 C1           3.4360    -0.0880     1.1830 ca         1 O3M      -0.197500
     13 C11         -2.5130    -1.8440    -0.2770 ca         1 O3M      -0.126000
     14 C12         -2.1460    -0.5040    -0.1680 ca         1 O3M      -0.073300
     15 C14          2.7460     0.1950    -1.4790 ca         1 O3M      -0.075000
     16 C2           2.3430     0.6820     0.8200 ca         1 O3M      -0.075000
     17 C3           1.9810     0.8430    -0.5150 ca         1 O3M      -0.127300
     18 C9          -4.5960    -1.3950     0.8270 ca         1 O3M      -0.128000
     19 H1           0.7020     1.7290    -1.9850 h1         1 O3M       0.036700
     20 H2           0.9810     2.7260    -0.5630 h1         1 O3M       0.036700
     21 H3          -1.8810     2.2600    -1.4170 h1         1 O3M       0.033200
     22 H4          -1.1250     3.2040    -0.1340 h1         1 O3M       0.033200
     23 H5          -2.3100     2.0500     1.5960 hc         1 O3M       0.054200
     24 H6          -3.4950     2.4850     0.3820 hc         1 O3M       0.054200
     25 H7          -4.9140     0.6400     1.4080 ha         1 O3M       0.127000
     26 H8          -3.9960    -3.3380     0.1230 ha         1 O3M       0.130000
     27 H9          -0.9160    -0.0460    -1.8460 h1         1 O3M       0.044200
     28 H10         -0.0590    -0.7830    -0.5040 h1         1 O3M       0.044200
     29 H11          4.4260    -1.0760    -1.9010 ha         1 O3M       0.138500
     30 H13          5.4310    -1.4870     1.4470 ho         1 O3M       0.425000
     31 H14          3.6980    -0.1920     2.2300 ha         1 O3M       0.138500
     32 H15         -1.8340    -2.5430    -0.7530 ha         1 O3M       0.128000
     33 H16          2.4810     0.2940    -2.5250 ha         1 O3M       0.135500
     34 H17          1.7600     1.1670     1.5940 ha         1 O3M       0.135500
     35 H18         -5.5480    -1.7340     1.2140 ha         1 O3M       0.129000
@<TRIPOS>BOND
     1     1     9 1   
     2     1    17 1   
     3     1    19 1   
     4     1    20 1   
     5     2     3 1   
     6     2     9 1   
     7     2    21 1   
     8     2    22 1   
     9     3     4 1   
    10     3    23 1   
    11     3    24 1   
    12     4     5 ar  
    13     4    14 ar  
    14     5    18 ar  
    15     5    25 1   
    16     6    13 ar  
    17     6    18 ar  
    18     6    26 1   
    19     7     9 1   
    20     7    14 1   
    21     7    27 1   
    22     7    28 1   
    23     8    10 ar  
    24     8    15 ar  
    25     8    29 1   
    26    10    11 1   
    27    10    12 ar  
    28    11    30 1   
    29    12    16 ar  
    30    12    31 1   
    31    13    14 ar  
    32    13    32 1   
    33    15    17 ar  
    34    15    33 1   
    35    16    17 ar  
    36    16    34 1   
    37    18    35 1   
@<TRIPOS>SUBSTRUCTURE
     1 O3M         1 TEMP              0 ****  ****    0 ROOT
