@<TRIPOS>MOLECULE
O3N
   76    79     1     0     0
SMALL
No Charge or Current Charge


@<TRIPOS>ATOM
      1 C1          -5.8750     2.2990    -2.9640 ca         1 O3N      -0.128000
      2 C2          -6.4610     1.0900    -2.5790 ca         1 O3N      -0.119000
      3 C3          -4.4950     2.4910    -2.8020 ca         1 O3N      -0.090000
      4 C4          -5.6630     0.0710    -2.0400 ca         1 O3N      -0.124000
      5 C5          -0.3110    -2.2370    -1.0450 ca         1 O3N      -0.109000
      6 C6           1.0570    -2.1280    -1.3370 ca         1 O3N      -0.137000
      7 C7          -3.6700     1.4850    -2.2410 ca         1 O3N      -0.107600
      8 C8           0.1250    -1.6830     1.2980 ca         1 O3N      -0.107600
      9 C9          -4.2720     0.2440    -1.8630 ca         1 O3N      -0.041300
     10 C10         -0.7970    -1.9970     0.2580 ca         1 O3N      -0.098300
     11 C11          1.9640    -1.8000    -0.3240 ca         1 O3N       0.059100
     12 C12          1.5010    -1.5710     0.9970 ca         1 O3N       0.053100
     13 C14         -3.7330    -0.0260     2.3220 c2         1 O3N      -0.189200
     14 C15         -2.1910     1.8110    -2.1010 c          1 O3N       0.614700
     15 C17          7.6510    -1.6890    -1.5450 c          1 O3N       0.717000
     16 C18          1.1870     4.3750     2.2200 c6         1 O3N      -0.074400
     17 C19          2.0670     4.1730     0.9640 c6         1 O3N      -0.067400
     18 C20         -0.3170     4.2830     1.8670 c6         1 O3N      -0.067400
     19 C21          1.7390     2.8320     0.2620 c6         1 O3N      -0.081900
     20 C22         -0.6490     2.9450     1.1610 c6         1 O3N      -0.081900
     21 C23          3.7170    -0.8120     1.5980 c6         1 O3N       0.115600
     22 C24          0.2330     2.7300    -0.1050 c6         1 O3N      -0.057700
     23 C25          4.2480    -1.7210     0.4650 c6         1 O3N       0.126300
     24 C26         -3.4880    -0.9690    -1.3370 c3         1 O3N       0.225100
     25 C27         -2.3060    -2.1030     0.5230 c3         1 O3N       0.240100
     26 C28         -4.2180    -0.6110     1.0130 c3         1 O3N       0.213000
     27 C30         -0.0650     1.3760    -0.8130 c3         1 O3N       0.069000
     28 C31          5.6320    -1.2630    -0.0770 c3         1 O3N      -0.048400
     29 N32         -1.4790     1.1550    -1.1260 ns         1 O3N      -0.458900
     30 N33         -3.0890    -0.9040     0.0980 n3         1 O3N      -0.753600
     31 O34         -0.3020    -0.3620     3.2020 o          1 O3N      -0.725500
     32 O35          7.7350    -0.8820    -2.4580 o          1 O3N      -0.752000
     33 O36         -1.6440     2.6270    -2.8350 o          1 O3N      -0.605100
     34 O37         -0.6630    -2.4800     3.3590 o          1 O3N      -0.725500
     35 O38          8.6120    -2.0760    -0.8960 o          1 O3N      -0.752000
     36 O39          2.4010    -1.2480     1.9970 os         1 O3N      -0.311100
     37 O40          3.3080    -1.7180    -0.6310 os         1 O3N      -0.335100
     38 H1          -6.4880     3.0910    -3.3890 ha         1 O3N       0.099000
     39 H2          -7.5300     0.9370    -2.7050 ha         1 O3N       0.096000
     40 H3          -4.0640     3.4430    -3.1040 ha         1 O3N       0.117000
     41 H4          -6.1330    -0.8690    -1.7610 ha         1 O3N       0.102000
     42 H5          -0.9940    -2.5170    -1.8410 ha         1 O3N       0.086000
     43 H6           1.4150    -2.3130    -2.3470 ha         1 O3N       0.113000
     44 H261        -4.0940    -1.8710    -1.5030 h1         1 O3N       0.039200
     45 H262        -2.6040    -1.0820    -1.9740 h1         1 O3N       0.039200
     46 H271        -2.6870    -2.9990     0.0140 h1         1 O3N       0.043700
     47 H272        -2.4630    -2.3000     1.5890 h1         1 O3N       0.043700
     48 H131        -3.3160     1.6410     3.5790 ha         1 O3N       0.147500
     49 H132        -3.9990     2.0440     1.8980 ha         1 O3N       0.147500
     50 H14         -3.4090    -0.7730     3.0500 ha         1 O3N       0.238000
     51 H281        -4.8020    -1.5220     1.2040 h1         1 O3N       0.026200
     52 H282        -4.9070     0.1180     0.5700 h1         1 O3N       0.026200
     53 H32         -2.0020     0.4900    -0.5560 hn         1 O3N       0.310500
     54 H291         5.5800    -2.1670    -2.0110 hc         1 O3N       0.026200
     55 H292         6.3280    -3.1850    -0.6770 hc         1 O3N       0.026200
     56 H181         1.4370     3.6150     2.9740 hc         1 O3N       0.030700
     57 H182         1.4040     5.3510     2.6750 hc         1 O3N       0.030700
     58 H191         1.9120     5.0050     0.2640 hc         1 O3N       0.024950
     59 H192         3.1290     4.1950     1.2460 hc         1 O3N       0.024950
     60 H201        -0.9210     4.3810     2.7790 hc         1 O3N       0.024950
     61 H202        -0.5960     5.1230     1.2160 hc         1 O3N       0.024950
     62 H211         2.3540     2.7320    -0.6440 hc         1 O3N       0.054950
     63 H212         2.0180     1.9980     0.9200 hc         1 O3N       0.054950
     64 H221        -0.5020     2.1120     1.8620 hc         1 O3N       0.054950
     65 H222        -1.7130     2.9380     0.8900 hc         1 O3N       0.054950
     66 H24         -0.0010     3.5230    -0.8280 hc         1 O3N       0.033700
     67 H231         4.3870    -0.8420     2.4680 h1         1 O3N       0.051700
     68 H232         3.6560     0.2260     1.2420 h1         1 O3N       0.051700
     69 H25          4.3360    -2.7480     0.8490 h1         1 O3N       0.046700
     70 H301         0.5220     1.3130    -1.7400 h1         1 O3N       0.090200
     71 H302         0.2680     0.5650    -0.1560 h1         1 O3N       0.090200
     72 H311         5.5470    -0.2510    -0.4930 hc         1 O3N       0.046200
     73 H312         6.3330    -1.1870     0.7630 hc         1 O3N       0.046200
     74 C13         -3.6840     1.2860     2.6160 c2         1 O3N      -0.372000
     75 C29          6.2560    -2.1970    -1.1480 c3         1 O3N      -0.202400
     76 C16         -0.3250    -1.4880     2.7260 c          1 O3N       0.727600
@<TRIPOS>BOND
     1     1     2 ar  
     2     1     3 ar  
     3     1    38 1   
     4     2     4 ar  
     5     2    39 1   
     6     3     7 ar  
     7     3    40 1   
     8     4     9 ar  
     9     4    41 1   
    10     5     6 ar  
    11     5    10 ar  
    12     5    42 1   
    13     6    11 ar  
    14     6    43 1   
    15     7     9 ar  
    16     7    14 1   
    17     8    10 ar  
    18     8    12 ar  
    19     8    76 1   
    20     9    24 1   
    21    10    25 1   
    22    11    12 ar  
    23    11    37 1   
    24    12    36 1   
    25    13    26 1   
    26    13    50 1   
    27    13    74 2   
    28    14    29 1   
    29    14    33 2   
    30    15    32 1   
    31    15    35 1   
    32    15    75 1   
    33    16    17 1   
    34    16    18 1   
    35    16    56 1   
    36    16    57 1   
    37    17    19 1   
    38    17    58 1   
    39    17    59 1   
    40    18    20 1   
    41    18    60 1   
    42    18    61 1   
    43    19    22 1   
    44    19    62 1   
    45    19    63 1   
    46    20    22 1   
    47    20    64 1   
    48    20    65 1   
    49    21    23 1   
    50    21    36 1   
    51    21    67 1   
    52    21    68 1   
    53    22    27 1   
    54    22    66 1   
    55    23    28 1   
    56    23    37 1   
    57    23    69 1   
    58    24    30 1   
    59    24    44 1   
    60    24    45 1   
    61    25    30 1   
    62    25    46 1   
    63    25    47 1   
    64    26    30 1   
    65    26    51 1   
    66    26    52 1   
    67    27    29 1   
    68    27    70 1   
    69    27    71 1   
    70    28    72 1   
    71    28    73 1   
    72    28    75 1   
    73    29    53 1   
    74    31    76 1   
    75    34    76 1   
    76    48    74 1   
    77    49    74 1   
    78    54    75 1   
    79    55    75 1   
@<TRIPOS>SUBSTRUCTURE
     1 O3N         1 TEMP              0 ****  ****    0 ROOT
