@<TRIPOS>MOLECULE
O3N
   76    79     1     0     0
SMALL
abcg2


@<TRIPOS>ATOM
      1 C1          -5.5190     2.2720    -2.7980 ca         1 O3N      -0.128000
      2 C2          -6.2650     1.1080    -2.6990 ca         1 O3N      -0.119000
      3 C3          -4.1700     2.2490    -2.4700 ca         1 O3N      -0.090000
      4 C4          -5.6610    -0.0630    -2.2590 ca         1 O3N      -0.124000
      5 C5          -0.3030    -2.1980    -1.2670 ca         1 O3N      -0.109000
      6 C6           1.0330    -2.0050    -1.5680 ca         1 O3N      -0.137000
      7 C7          -3.5640     1.0740    -2.0440 ca         1 O3N      -0.107600
      8 C8           0.1200    -1.7810     1.0570 ca         1 O3N      -0.107600
      9 C9          -4.3110    -0.1010    -1.9270 ca         1 O3N      -0.041300
     10 C10         -0.7810    -2.0920     0.0370 ca         1 O3N      -0.098300
     11 C11          1.9310    -1.7010    -0.5540 ca         1 O3N       0.059100
     12 C12          1.4660    -1.5900     0.7540 ca         1 O3N       0.053100
     13 C14         -3.5610     0.2700     1.8010 c2         1 O3N      -0.189200
     14 C15         -2.0800     1.0750    -1.8110 c          1 O3N       0.614700
     15 C17          7.4950    -1.3390    -1.8250 c          1 O3N       0.717000
     16 C18          1.4660     4.4730     2.4660 c6         1 O3N      -0.074400
     17 C19          2.3230     3.7940     1.4030 c6         1 O3N      -0.067400
     18 C20          0.0610     4.7500     1.9410 c6         1 O3N      -0.067400
     19 C21          1.6560     2.5250     0.8830 c6         1 O3N      -0.081900
     20 C22         -0.5990     3.4760     1.4210 c6         1 O3N      -0.081900
     21 C23          3.5680    -0.7910     1.3780 c6         1 O3N       0.115600
     22 C24          0.2480     2.7880     0.3500 c6         1 O3N      -0.057700
     23 C25          4.1480    -1.5830     0.2240 c6         1 O3N       0.126300
     24 C26         -3.6920    -1.3750    -1.4110 c3         1 O3N       0.225100
     25 C27         -2.2510    -2.3090     0.3180 c3         1 O3N       0.240100
     26 C28         -4.0970    -0.8240     0.9270 c3         1 O3N       0.213000
     27 C30         -0.3630     1.4670    -0.0990 c3         1 O3N       0.069000
     28 C31          5.4830    -1.0340    -0.2350 c3         1 O3N      -0.048400
     29 N32         -1.7010     1.5960    -0.6380 ns         1 O3N      -0.458900
     30 N33         -3.1220    -1.2060    -0.0880 n3         1 O3N      -0.753600
     31 O34         -0.3590    -0.4950     2.9750 o          1 O3N      -0.725500
     32 O35          7.9270    -1.8340    -2.8870 o          1 O3N      -0.752000
     33 O36         -1.3220     0.6760    -2.6840 o          1 O3N      -0.605100
     34 O37         -0.5160    -2.7170     3.1210 o          1 O3N      -0.725500
     35 O38          8.0840    -0.5090    -1.1050 o          1 O3N      -0.752000
     36 O39          2.3180    -1.3160     1.7790 os         1 O3N      -0.311100
     37 O40          3.2390    -1.5350    -0.8730 os         1 O3N      -0.335100
     38 H1          -5.9800     3.1930    -3.1300 ha         1 O3N       0.099000
     39 H2          -7.3180     1.1100    -2.9520 ha         1 O3N       0.096000
     40 H3          -3.5820     3.1560    -2.5520 ha         1 O3N       0.117000
     41 H4          -6.2540    -0.9660    -2.1640 ha         1 O3N       0.102000
     42 H5          -0.9800    -2.4570    -2.0710 ha         1 O3N       0.086000
     43 H6           1.3920    -2.1010    -2.5850 ha         1 O3N       0.113000
     44 H261        -4.4460    -2.1790    -1.4510 h1         1 O3N       0.039200
     45 H262        -2.8920    -1.6780    -2.0900 h1         1 O3N       0.039200
     46 H271        -2.5740    -3.2430    -0.1650 h1         1 O3N       0.043700
     47 H272        -2.3840    -2.4810     1.3850 h1         1 O3N       0.043700
     48 H131        -3.7600     2.1900     2.6540 ha         1 O3N       0.147500
     49 H132        -5.1460     1.6440     1.5640 ha         1 O3N       0.147500
     50 H14         -2.5890     0.0920     2.2540 ha         1 O3N       0.238000
     51 H281        -4.3890    -1.6860     1.5440 h1         1 O3N       0.026200
     52 H282        -5.0180    -0.4760     0.4540 h1         1 O3N       0.026200
     53 H32         -2.4390     1.6960     0.0440 hn         1 O3N       0.310500
     54 H291         5.4440    -1.8520    -2.2360 hc         1 O3N       0.026200
     55 H292         6.2140    -2.8790    -1.0600 hc         1 O3N       0.026200
     56 H181         1.4010     3.8240     3.3470 hc         1 O3N       0.030700
     57 H182         1.9380     5.4010     2.7980 hc         1 O3N       0.030700
     58 H191         2.4780     4.4880     0.5690 hc         1 O3N       0.024950
     59 H192         3.3130     3.5620     1.8030 hc         1 O3N       0.024950
     60 H201        -0.5560     5.2000     2.7230 hc         1 O3N       0.024950
     61 H202         0.1180     5.4830     1.1300 hc         1 O3N       0.024950
     62 H211         2.2700     2.0660     0.1010 hc         1 O3N       0.054950
     63 H212         1.5870     1.7870     1.6920 hc         1 O3N       0.054950
     64 H221        -0.7480     2.7740     2.2520 hc         1 O3N       0.054950
     65 H222        -1.5930     3.7090     1.0280 hc         1 O3N       0.054950
     66 H24          0.3210     3.4590    -0.5160 hc         1 O3N       0.033700
     67 H231         4.2300    -0.8430     2.2430 h1         1 O3N       0.051700
     68 H232         3.4630     0.2630     1.0930 h1         1 O3N       0.051700
     69 H25          4.2680    -2.6300     0.5390 h1         1 O3N       0.046700
     70 H301         0.2660     0.9960    -0.8540 h1         1 O3N       0.090200
     71 H302        -0.3980     0.7810     0.7520 h1         1 O3N       0.090200
     72 H311         5.3580     0.0140    -0.5260 hc         1 O3N       0.046200
     73 H312         6.1550    -1.0340     0.6260 hc         1 O3N       0.046200
     74 C13         -4.1850     1.4240     2.0170 c2         1 O3N      -0.372000
     75 C29          6.1090    -1.8310    -1.3690 c3         1 O3N      -0.202400
     76 C16         -0.2910    -1.6510     2.5180 c          1 O3N       0.727600
@<TRIPOS>BOND
     1     1     2 ar  
     2     1     3 ar  
     3     1    38 1   
     4     2     4 ar  
     5     2    39 1   
     6     3     7 ar  
     7     3    40 1   
     8     4     9 ar  
     9     4    41 1   
    10     5     6 ar  
    11     5    10 ar  
    12     5    42 1   
    13     6    11 ar  
    14     6    43 1   
    15     7     9 ar  
    16     7    14 1   
    17     8    10 ar  
    18     8    12 ar  
    19     8    76 1   
    20     9    24 1   
    21    10    25 1   
    22    11    12 ar  
    23    11    37 1   
    24    12    36 1   
    25    13    26 1   
    26    13    50 1   
    27    13    74 2   
    28    14    29 1   
    29    14    33 2   
    30    15    32 1   
    31    15    35 1   
    32    15    75 1   
    33    16    17 1   
    34    16    18 1   
    35    16    56 1   
    36    16    57 1   
    37    17    19 1   
    38    17    58 1   
    39    17    59 1   
    40    18    20 1   
    41    18    60 1   
    42    18    61 1   
    43    19    22 1   
    44    19    62 1   
    45    19    63 1   
    46    20    22 1   
    47    20    64 1   
    48    20    65 1   
    49    21    23 1   
    50    21    36 1   
    51    21    67 1   
    52    21    68 1   
    53    22    27 1   
    54    22    66 1   
    55    23    28 1   
    56    23    37 1   
    57    23    69 1   
    58    24    30 1   
    59    24    44 1   
    60    24    45 1   
    61    25    30 1   
    62    25    46 1   
    63    25    47 1   
    64    26    30 1   
    65    26    51 1   
    66    26    52 1   
    67    27    29 1   
    68    27    70 1   
    69    27    71 1   
    70    28    72 1   
    71    28    73 1   
    72    28    75 1   
    73    29    53 1   
    74    31    76 1   
    75    34    76 1   
    76    48    74 1   
    77    49    74 1   
    78    54    75 1   
    79    55    75 1   
@<TRIPOS>SUBSTRUCTURE
     1 O3N         1 TEMP              0 ****  ****    0 ROOT
