@<TRIPOS>MOLECULE
O3O
   59    61     1     0     0
SMALL
No Charge or Current Charge


@<TRIPOS>ATOM
      1 C1          20.2240    24.7140    -4.7690 c          1 O3O       0.589100
      2 C2          19.0920    24.5980    -5.7990 c3         1 O3O       0.037600
      3 C3          21.2720    23.5790    -2.7720 c3         1 O3O       0.108000
      4 C4          21.0200    24.5520    -1.5890 c3         1 O3O      -0.093400
      5 C5          19.8210    24.2530    -0.6260 c6         1 O3O      -0.059700
      6 C6          18.4270    24.5670    -1.2420 c6         1 O3O      -0.087400
      7 C7          17.2890    23.8790    -0.4540 c6         1 O3O       0.105000
      8 O1          21.0110    25.6520    -4.7520 o          1 O3O      -0.583100
      9 N1          20.2930    23.6780    -3.8580 ns         1 O3O      -0.501900
     10 N2          17.3910    22.3890    -0.4710 n          1 O3O      -0.399800
     11 C8          16.3100    21.6240     0.1010 c          1 O3O       0.591100
     12 O2          15.5530    22.1900     0.8880 o          1 O3O      -0.618100
     13 C9          16.1340    20.0580    -0.2300 c6         1 O3O       0.194200
     14 N3          16.7650    19.1550     0.7920 nu         1 O3O      -0.986200
     15 C10         17.2890    19.6010     2.0030 ca         1 O3O       0.337000
     16 C11         16.4570    20.1470     2.9920 ca         1 O3O      -0.188500
     17 C12         17.0030    20.5920     4.2110 ca         1 O3O      -0.055000
     18 C13         18.3840    20.4790     4.4410 ca         1 O3O       0.067000
     19 Cl2         19.0710    21.0360     5.9610 cl         1 O3O      -0.220000
     20 C14         19.2170    19.9140     3.4600 ca         1 O3O      -0.055000
     21 C15         18.6650    19.4690     2.2440 ca         1 O3O      -0.188500
     22 C16         16.7610    19.6740    -1.6200 c6         1 O3O      -0.124400
     23 C17         16.3150    18.2930    -2.1630 c6         1 O3O       0.145800
     24 N4          14.8450    18.1710    -2.1920 n7         1 O3O      -0.842400
     25 C18         14.2590    18.3610    -0.8510 c6         1 O3O       0.145800
     26 C19         14.6020    19.7610    -0.3030 c6         1 O3O      -0.124400
     27 C20         18.8180    21.8760    -0.6300 c6         1 O3O       0.105000
     28 C21         19.8630    22.8280    -0.0010 c6         1 O3O      -0.087400
     29 H1          19.2470    25.3460    -6.5840 h1         1 O3O       0.082700
     30 H2          19.1150    23.5960    -6.2430 h1         1 O3O       0.082700
     31 Cl1         17.4330    24.8630    -5.0810 cl         1 O3O      -0.254000
     32 H4          21.2920    22.5440    -2.4090 h1         1 O3O       0.054700
     33 H5          22.2640    23.7910    -3.1930 h1         1 O3O       0.054700
     34 H6          21.9390    24.5570    -0.9890 hc         1 O3O       0.060700
     35 H7          20.9320    25.5720    -1.9810 hc         1 O3O       0.060700
     36 H8          19.9600    24.9590     0.2060 hc         1 O3O       0.061700
     37 H9          18.3660    24.2300    -2.2810 hc         1 O3O       0.047950
     38 H10         18.2650    25.6530    -1.2630 hc         1 O3O       0.047950
     39 H11         17.3010    24.2320     0.5880 h1         1 O3O       0.052200
     40 H12         16.3240    24.1740    -0.8900 h1         1 O3O       0.052200
     41 H13         19.5960    22.9480    -3.9480 hn         1 O3O       0.313500
     42 H14         17.2990    18.3800     0.4020 hn         1 O3O       0.485000
     43 H15         15.3890    20.2290     2.8180 ha         1 O3O       0.120500
     44 H16         16.3580    21.0220     4.9730 ha         1 O3O       0.127500
     45 H17         20.2850    19.8200     3.6420 ha         1 O3O       0.127500
     46 H18         19.3110    19.0330     1.4880 ha         1 O3O       0.120500
     47 H19         17.8540    19.6610    -1.5780 hc         1 O3O       0.065700
     48 H20         16.4920    20.4410    -2.3590 hc         1 O3O       0.065700
     49 H21         16.7170    18.1520    -3.1780 h1         1 O3O       0.055700
     50 H22         16.7360    17.4930    -1.5340 h1         1 O3O       0.055700
     51 H23         14.4660    18.8890    -2.8220 hn         1 O3O       0.407000
     52 H25         13.1650    18.2470    -0.9050 h1         1 O3O       0.055700
     53 H26         14.6360    17.5880    -0.1630 h1         1 O3O       0.055700
     54 H27         14.1510    19.8730     0.6920 hc         1 O3O       0.065700
     55 H28         14.1160    20.5140    -0.9380 hc         1 O3O       0.065700
     56 H29         19.0370    21.7360    -1.6980 h1         1 O3O       0.052200
     57 H30         18.9140    20.9010    -0.1360 h1         1 O3O       0.052200
     58 H31         19.6550    22.9000     1.0760 hc         1 O3O       0.047950
     59 H32         20.8680    22.3920    -0.0770 hc         1 O3O       0.047950
@<TRIPOS>BOND
     1     1     2 1   
     2     1     8 2   
     3     1     9 1   
     4     2    29 1   
     5     2    30 1   
     6     2    31 1   
     7     3     4 1   
     8     3     9 1   
     9     3    32 1   
    10     3    33 1   
    11     4     5 1   
    12     4    34 1   
    13     4    35 1   
    14     5     6 1   
    15     5    28 1   
    16     5    36 1   
    17     6     7 1   
    18     6    37 1   
    19     6    38 1   
    20     7    10 1   
    21     7    39 1   
    22     7    40 1   
    23     9    41 1   
    24    10    11 1   
    25    10    27 1   
    26    11    12 2   
    27    11    13 1   
    28    13    14 1   
    29    13    22 1   
    30    13    26 1   
    31    14    15 1   
    32    14    42 1   
    33    15    16 ar  
    34    15    21 ar  
    35    16    17 ar  
    36    16    43 1   
    37    17    18 ar  
    38    17    44 1   
    39    18    19 1   
    40    18    20 ar  
    41    20    21 ar  
    42    20    45 1   
    43    21    46 1   
    44    22    23 1   
    45    22    47 1   
    46    22    48 1   
    47    23    24 1   
    48    23    49 1   
    49    23    50 1   
    50    24    25 1   
    51    24    51 1   
    52    25    26 1   
    53    25    52 1   
    54    25    53 1   
    55    26    54 1   
    56    26    55 1   
    57    27    28 1   
    58    27    56 1   
    59    27    57 1   
    60    28    58 1   
    61    28    59 1   
@<TRIPOS>SUBSTRUCTURE
     1 O3O         1 TEMP              0 ****  ****    0 ROOT
