@<TRIPOS>MOLECULE
O3O
   59    61     1     0     0
SMALL
abcg2


@<TRIPOS>ATOM
      1 C1          21.1060    26.1000    -3.2240 c          1 O3O       0.589100
      2 C2          20.5960    26.5970    -4.5670 c3         1 O3O       0.037600
      3 C3          21.4880    24.0990    -1.8400 c3         1 O3O       0.108000
      4 C4          20.4050    24.0820    -0.7580 c3         1 O3O      -0.093400
      5 C5          19.1350    23.2660    -1.0210 c6         1 O3O      -0.059700
      6 C6          18.2440    23.7660    -2.1620 c6         1 O3O      -0.087400
      7 C7          16.8540    23.1390    -2.0320 c6         1 O3O       0.105000
      8 O1          21.4880    26.8890    -2.3610 o          1 O3O      -0.583100
      9 N1          21.0970    24.7690    -3.0750 ns         1 O3O      -0.501900
     10 N2          16.9500    21.7330    -1.6020 n          1 O3O      -0.399800
     11 C8          15.8650    21.1920    -1.0120 c          1 O3O       0.591100
     12 O2          14.8070    21.8290    -0.9430 o          1 O3O      -0.618100
     13 C9          15.9130    19.7590    -0.4080 c6         1 O3O       0.194200
     14 N3          17.1660    19.4910     0.2820 nu         1 O3O      -0.986200
     15 C10         17.6750    20.1810     1.3540 ca         1 O3O       0.337000
     16 C11         17.1850    21.4270     1.7790 ca         1 O3O      -0.188500
     17 C12         17.7940    22.1120     2.8220 ca         1 O3O      -0.055000
     18 C13         18.8940    21.5660     3.4630 ca         1 O3O       0.067000
     19 CL2         19.6670    22.4420     4.7770 cl         1 O3O      -0.220000
     20 C14         19.3900    20.3270     3.0760 ca         1 O3O      -0.055000
     21 C15         18.7830    19.6440     2.0370 ca         1 O3O      -0.188500
     22 C16         15.7550    18.7490    -1.5690 c6         1 O3O      -0.124400
     23 C17         15.5590    17.3100    -1.0770 c6         1 O3O       0.145800
     24 N4          14.4740    17.1510    -0.1090 n7         1 O3O      -0.842400
     25 C18         14.6050    18.1030     0.9990 c6         1 O3O       0.145800
     26 C19         14.7130    19.5590     0.5470 c6         1 O3O      -0.124400
     27 C20         18.2210    21.0910    -1.9450 c6         1 O3O       0.105000
     28 C21         19.3970    21.7630    -1.2230 c6         1 O3O      -0.087400
     29 H1          21.2020    27.4330    -4.9030 h1         1 O3O       0.082700
     30 H2          20.5480    25.8220    -5.3250 h1         1 O3O       0.082700
     31 CL1         18.9100    27.2270    -4.3570 cl         1 O3O      -0.254000
     32 H4          21.7930    23.0890    -2.1080 h1         1 O3O       0.054700
     33 H5          22.3660    24.6130    -1.4480 h1         1 O3O       0.054700
     34 H6          20.8770    23.6910     0.1500 hc         1 O3O       0.060700
     35 H7          20.1210    25.1150    -0.5390 hc         1 O3O       0.060700
     36 H8          18.5380    23.3650    -0.1080 hc         1 O3O       0.061700
     37 H9          18.6810    23.5180    -3.1310 hc         1 O3O       0.047950
     38 H10         18.1370    24.8520    -2.1350 hc         1 O3O       0.047950
     39 H11         16.2770    23.6700    -1.2760 h1         1 O3O       0.052200
     40 H12         16.3000    23.2060    -2.9740 h1         1 O3O       0.052200
     41 H13         20.7550    24.2040    -3.8350 hn         1 O3O       0.313500
     42 H14         17.5740    18.5840     0.1250 hn         1 O3O       0.485000
     43 H15         16.3370    21.8850     1.2940 ha         1 O3O       0.120500
     44 H16         17.4070    23.0750     3.1280 ha         1 O3O       0.127500
     45 H17         20.2460    19.8980     3.5800 ha         1 O3O       0.127500
     46 H18         19.1770    18.6820     1.7300 ha         1 O3O       0.120500
     47 H19         16.6130    18.7930    -2.2420 hc         1 O3O       0.065700
     48 H20         14.8760    19.0500    -2.1440 hc         1 O3O       0.065700
     49 H21         15.3620    16.6660    -1.9360 h1         1 O3O       0.055700
     50 H22         16.4790    16.9380    -0.6160 h1         1 O3O       0.055700
     51 H23         13.5900    17.3200    -0.5810 hn         1 O3O       0.407000
     52 H25         13.7420    17.9890     1.6580 h1         1 O3O       0.055700
     53 H26         15.4890    17.8240     1.5790 h1         1 O3O       0.055700
     54 H27         14.8170    20.2110     1.4150 hc         1 O3O       0.065700
     55 H28         13.7980    19.8490     0.0330 hc         1 O3O       0.065700
     56 H29         18.3440    21.1900    -3.0270 h1         1 O3O       0.052200
     57 H30         18.1840    20.0370    -1.7190 h1         1 O3O       0.052200
     58 H31         19.5730    21.2880    -0.2580 hc         1 O3O       0.047950
     59 H32         20.2910    21.6040    -1.8310 hc         1 O3O       0.047950
@<TRIPOS>BOND
     1     1     2 1   
     2     1     8 2   
     3     1     9 1   
     4     2    29 1   
     5     2    30 1   
     6     2    31 1   
     7     3     4 1   
     8     3     9 1   
     9     3    32 1   
    10     3    33 1   
    11     4     5 1   
    12     4    34 1   
    13     4    35 1   
    14     5     6 1   
    15     5    28 1   
    16     5    36 1   
    17     6     7 1   
    18     6    37 1   
    19     6    38 1   
    20     7    10 1   
    21     7    39 1   
    22     7    40 1   
    23     9    41 1   
    24    10    11 1   
    25    10    27 1   
    26    11    12 2   
    27    11    13 1   
    28    13    14 1   
    29    13    22 1   
    30    13    26 1   
    31    14    15 1   
    32    14    42 1   
    33    15    16 ar  
    34    15    21 ar  
    35    16    17 ar  
    36    16    43 1   
    37    17    18 ar  
    38    17    44 1   
    39    18    19 1   
    40    18    20 ar  
    41    20    21 ar  
    42    20    45 1   
    43    21    46 1   
    44    22    23 1   
    45    22    47 1   
    46    22    48 1   
    47    23    24 1   
    48    23    49 1   
    49    23    50 1   
    50    24    25 1   
    51    24    51 1   
    52    25    26 1   
    53    25    52 1   
    54    25    53 1   
    55    26    54 1   
    56    26    55 1   
    57    27    28 1   
    58    27    56 1   
    59    27    57 1   
    60    28    58 1   
    61    28    59 1   
@<TRIPOS>SUBSTRUCTURE
     1 O3O         1 TEMP              0 ****  ****    0 ROOT
