@<TRIPOS>MOLECULE
O3P
   44    45     1     0     0
SMALL
bcc


@<TRIPOS>ATOM
      1 C12         -4.7110    -2.0780     0.3080 c3         1 O3P       0.146800
      2 C13         -4.3200     0.9090     0.6900 c3         1 O3P       0.152100
      3 C14         -0.4280    -0.9920     0.3390 ca         1 O3P      -0.147000
      4 C15          0.2690    -2.1860     0.4620 ca         1 O3P      -0.107000
      5 C16          1.6470    -2.2190     0.3560 ca         1 O3P      -0.192000
      6 C8          -1.9130     3.1080    -0.5170 cc         1 O3P      -0.170300
      7 C1           6.0760    -0.7180    -0.0650 ce         1 O3P      -0.254200
      8 C3           2.3540    -1.0370     0.1170 ca         1 O3P       0.066600
      9 C4           1.6570     0.1600    -0.0280 ca         1 O3P      -0.153000
     10 C5           0.2630     0.1950     0.0890 ca         1 O3P       0.032000
     11 C6          -0.4340     1.4780    -0.0410 cd         1 O3P      -0.095000
     12 C7           0.1090     2.7000     0.3020 cc         1 O3P      -0.147300
     13 N1          -0.7940     3.6660     0.0110 na         1 O3P      -0.154100
     14 C10         -2.7420     0.7850    -1.1240 c3         1 O3P       0.245100
     15 C11         -4.2300    -1.0490    -0.7060 c3         1 O3P       0.162800
     16 N2          -3.4810     0.0410    -0.1090 n3         1 O3P      -0.725600
     17 C9          -1.7420     1.7460    -0.5650 cd         1 O3P      -0.133300
     18 O            4.4490     1.0170    -0.0170 o          1 O3P      -0.590100
     19 C            4.6920    -0.1790    -0.0210 c          1 O3P       0.675300
     20 N3          -5.3960    -3.1600    -0.3840 n8         1 O3P      -0.891800
     21 H1          -3.8500    -2.4040     0.9090 h1         1 O3P       0.034700
     22 H2          -5.4220    -1.6240     1.0020 h1         1 O3P       0.034700
     23 H3          -5.1400     1.3620     0.1110 h1         1 O3P       0.030367
     24 H4          -4.7620     0.3610     1.5220 h1         1 O3P       0.030367
     25 H5          -3.7260     1.7170     1.1150 h1         1 O3P       0.030367
     26 H6          -1.5040    -0.9700     0.4560 ha         1 O3P       0.166000
     27 H7          -0.2690    -3.1050     0.6570 ha         1 O3P       0.125000
     28 H8           2.1800    -3.1570     0.4620 ha         1 O3P       0.122000
     29 H9          -2.7510     3.7110    -0.8290 h4         1 O3P       0.161000
     30 H10          6.2070    -1.7940    -0.0700 ha         1 O3P       0.126000
     31 H13          2.1890     1.0700    -0.2520 ha         1 O3P       0.160000
     32 H14          1.0620     2.9420     0.7460 h4         1 O3P       0.173000
     33 H15         -0.6560     4.6500     0.1710 hn         1 O3P       0.295700
     34 H16         -2.2260     0.0540    -1.7550 h1         1 O3P       0.035200
     35 H17         -3.4270     1.3340    -1.7920 h1         1 O3P       0.035200
     36 H18         -3.5680    -1.5590    -1.4130 h1         1 O3P       0.036700
     37 H19         -5.0960    -0.6880    -1.2880 h1         1 O3P       0.036700
     38 H21          4.0870    -2.1000     0.0290 hn         1 O3P       0.314500
     39 H22         -4.7220    -3.7080    -0.9040 hn         1 O3P       0.337300
     40 H23         -5.7980    -3.7930     0.2940 hn         1 O3P       0.337300
     41 C2           7.1330     0.0850    -0.0930 c2         1 O3P      -0.128000
     42 H11          8.1370    -0.3160    -0.1210 ha         1 O3P       0.126500
     43 H12          7.0340     1.1620    -0.0880 ha         1 O3P       0.126500
     44 N            3.7450    -1.1510     0.0180 ns         1 O3P      -0.468100
@<TRIPOS>BOND
     1     1    15 1   
     2     1    20 1   
     3     1    21 1   
     4     1    22 1   
     5     2    16 1   
     6     2    23 1   
     7     2    24 1   
     8     2    25 1   
     9     3     4 ar  
    10     3    10 ar  
    11     3    26 1   
    12     4     5 ar  
    13     4    27 1   
    14     5     8 ar  
    15     5    28 1   
    16     6    13 1   
    17     6    17 2   
    18     6    29 1   
    19     7    19 1   
    20     7    30 1   
    21     7    41 2   
    22     8     9 ar  
    23     8    44 1   
    24     9    10 ar  
    25     9    31 1   
    26    10    11 1   
    27    11    12 2   
    28    11    17 1   
    29    12    13 1   
    30    12    32 1   
    31    13    33 1   
    32    14    16 1   
    33    14    17 1   
    34    14    34 1   
    35    14    35 1   
    36    15    16 1   
    37    15    36 1   
    38    15    37 1   
    39    18    19 2   
    40    19    44 1   
    41    20    39 1   
    42    20    40 1   
    43    38    44 1   
    44    41    42 1   
    45    41    43 1   
@<TRIPOS>SUBSTRUCTURE
     1 O3P         1 TEMP              0 ****  ****    0 ROOT
