@<TRIPOS>MOLECULE
O3P
   44    45     1     0     0
SMALL
No Charge or Current Charge


@<TRIPOS>ATOM
      1 C12         -5.1850    -1.9800     0.4000 c3         1 O3P       0.146800
      2 C13         -4.4280     1.0060     0.7090 c3         1 O3P       0.152100
      3 C14         -0.2790    -1.1170     0.0750 ca         1 O3P      -0.129000
      4 C15          0.4660    -2.3050     0.1230 ca         1 O3P      -0.089000
      5 C16          1.8660    -2.2600     0.0930 ca         1 O3P      -0.174000
      6 C8          -1.9830     3.0030    -0.4650 cc         1 O3P      -0.203000
      7 C1           6.3220    -0.5660    -0.0170 ce         1 O3P      -0.304200
      8 C3           2.5350    -1.0280     0.0270 ca         1 O3P      -0.026000
      9 C4           1.7760     0.1620    -0.0260 ca         1 O3P      -0.135000
     10 C5           0.3610     0.1380    -0.0150 ca         1 O3P       0.032000
     11 C6          -0.4010     1.4160    -0.0680 cd         1 O3P      -0.095000
     12 C7           0.1640     2.6410     0.2070 cc         1 O3P      -0.180000
     13 N1          -0.8190     3.6010    -0.0020 na         1 O3P      -0.103000
     14 C10         -2.7430     0.6540    -1.0710 c3         1 O3P       0.245100
     15 C11         -4.4270    -1.0880    -0.6300 c3         1 O3P       0.162800
     16 N2          -3.6170     0.0200    -0.0490 n3         1 O3P      -0.725600
     17 C9          -1.7410     1.6530    -0.5210 cd         1 O3P      -0.133300
     18 O            4.6720     1.1370     0.2020 o          1 O3P      -0.590100
     19 C            4.9180    -0.0560     0.0680 c          1 O3P       0.608300
     20 N3          -5.8710    -3.1420    -0.2220 n8         1 O3P      -1.002200
     21 H1          -4.4700    -2.3560     1.1450 h1         1 O3P       0.034700
     22 H2          -5.9410    -1.3790     0.9230 h1         1 O3P       0.034700
     23 H3          -5.1310     1.5270     0.0450 h1         1 O3P       0.030367
     24 H4          -5.0030     0.5200     1.5070 h1         1 O3P       0.030367
     25 H5          -3.7880     1.7570     1.1890 h1         1 O3P       0.030367
     26 H6          -1.3560    -1.1890     0.1470 ha         1 O3P       0.148000
     27 H7          -0.0460    -3.2630     0.1950 ha         1 O3P       0.107000
     28 H8           2.4310    -3.1890     0.1320 ha         1 O3P       0.104000
     29 H9          -2.8650     3.5730    -0.7320 h4         1 O3P       0.143000
     30 H10          6.4250    -1.6410    -0.1650 ha         1 O3P       0.176000
     31 H13          2.2800     1.1170    -0.1080 ha         1 O3P       0.142000
     32 H14          1.1580     2.9070     0.5480 h4         1 O3P       0.155000
     33 H15         -0.6940     4.6000     0.1390 hn         1 O3P       0.346000
     34 H16         -2.1880    -0.1120    -1.6290 h1         1 O3P       0.035200
     35 H17         -3.3670     1.1730    -1.8120 h1         1 O3P       0.035200
     36 H18         -3.7630    -1.7480    -1.2050 h1         1 O3P       0.036700
     37 H19         -5.1580    -0.6780    -1.3400 h1         1 O3P       0.036700
     38 H21          4.3420    -1.9890    -0.0820 hn         1 O3P       0.148000
     39 H22         -5.1650    -3.7680    -0.6280 hn         1 O3P       0.392500
     40 H23         -6.2980    -3.7120     0.5190 hn         1 O3P       0.392500
     41 C2           7.4300     0.2090     0.0940 c2         1 O3P      -0.228000
     42 H11          8.4340    -0.2120     0.0330 ha         1 O3P       0.176500
     43 H12          7.3680     1.2880     0.2510 ha         1 O3P       0.176500
     44 N            3.9580    -1.0570     0.0020 ns         1 O3P      -0.142000
@<TRIPOS>BOND
     1     1    15 1   
     2     1    20 1   
     3     1    21 1   
     4     1    22 1   
     5     2    16 1   
     6     2    23 1   
     7     2    24 1   
     8     2    25 1   
     9     3     4 ar  
    10     3    10 ar  
    11     3    26 1   
    12     4     5 ar  
    13     4    27 1   
    14     5     8 ar  
    15     5    28 1   
    16     6    13 1   
    17     6    17 2   
    18     6    29 1   
    19     7    19 1   
    20     7    30 1   
    21     7    41 2   
    22     8     9 ar  
    23     8    44 1   
    24     9    10 ar  
    25     9    31 1   
    26    10    11 1   
    27    11    12 2   
    28    11    17 1   
    29    12    13 1   
    30    12    32 1   
    31    13    33 1   
    32    14    16 1   
    33    14    17 1   
    34    14    34 1   
    35    14    35 1   
    36    15    16 1   
    37    15    36 1   
    38    15    37 1   
    39    18    19 2   
    40    19    44 1   
    41    20    39 1   
    42    20    40 1   
    43    38    44 1   
    44    41    42 1   
    45    41    43 1   
@<TRIPOS>SUBSTRUCTURE
     1 O3P         1 TEMP              0 ****  ****    0 ROOT
