@<TRIPOS>MOLECULE
O3Q
   44    46     1     0     0
SMALL
abcg2


@<TRIPOS>ATOM
      1 N12         -3.0150    -1.9240    85.4030 n          1 O3Q      -0.198800
      2 C13         -2.2440    -2.3850    84.3330 c          1 O3Q       0.560600
      3 C17          3.1250    -4.2420    84.1000 cc         1 O3Q       0.102000
      4 C21         -6.7860    -1.7080    84.7430 c3         1 O3Q      -0.072400
      5 C22         -7.6840    -0.7660    83.9450 c3         1 O3Q      -0.088100
      6 C1           1.4250    -1.9050    83.6230 ca         1 O3Q      -0.166600
      7 C2           1.7710    -1.0660    84.6930 ca         1 O3Q      -0.059000
      8 C3           0.8260    -0.6760    85.6120 ca         1 O3Q      -0.092000
      9 C4          -0.4880    -1.1330    85.4690 ca         1 O3Q       0.115400
     10 C5          -0.8470    -1.9720    84.3960 ca         1 O3Q      -0.173600
     11 C6           0.1250    -2.3730    83.4480 ca         1 O3Q       0.021700
     12 C7           2.5230    -2.2740    82.6510 c          1 O3Q       0.623900
     13 C8           3.3070    -3.4340    82.9840 cd         1 O3Q      -0.410400
     14 C14          4.4280    -3.9960    82.2310 c          1 O3Q       0.589200
     15 C19         -4.4380    -2.2730    85.4740 c3         1 O3Q       0.109000
     16 C23         -0.2050    -3.2780    82.2930 c3         1 O3Q      -0.058800
     17 N10         -1.3950    -0.7260    86.4370 nc         1 O3Q      -0.247400
     18 N11         -2.5930    -1.1160    86.3950 nd         1 O3Q      -0.018600
     19 N15          4.8050    -5.1150    82.9630 n          1 O3Q      -0.278200
     20 N16          4.0280    -5.2110    84.0860 na         1 O3Q      -0.547200
     21 O9           2.7040    -1.5780    81.6550 o          1 O3Q      -0.498100
     22 O18         -2.7660    -3.0710    83.4630 o          1 O3Q      -0.523000
     23 O24          4.9870    -3.6450    81.1910 o          1 O3Q      -0.523000
     24 H1           2.3980    -4.1840    84.8930 h4         1 O3Q       0.231000
     25 H2          -4.9830    -1.3390    83.6150 hc         1 O3Q       0.054700
     26 H3          -5.1680    -0.3060    85.0280 hc         1 O3Q       0.054700
     27 H4          -7.0970    -1.7110    85.7930 hc         1 O3Q       0.038700
     28 H5          -6.9140    -2.7320    84.3800 hc         1 O3Q       0.038700
     29 H6          -8.7320    -1.0610    84.0190 hc         1 O3Q       0.035033
     30 H7          -7.5970     0.2610    84.3110 hc         1 O3Q       0.035033
     31 H8          -7.4080    -0.7660    82.8870 hc         1 O3Q       0.035033
     32 H9           2.7960    -0.7310    84.7930 ha         1 O3Q       0.131000
     33 H10          1.0730    -0.0330    86.4460 ha         1 O3Q       0.142000
     34 H12         -4.7080    -2.2370    86.5280 h1         1 O3Q       0.068700
     35 H13         -4.5400    -3.2960    85.1180 h1         1 O3Q       0.068700
     36 H14         -0.6380    -4.2150    82.6430 hc         1 O3Q       0.063367
     37 H15         -0.9440    -2.8170    81.6380 hc         1 O3Q       0.063367
     38 H16          0.6820    -3.5040    81.7070 hc         1 O3Q       0.063367
     39 H17          5.6650    -7.0090    82.7580 h1         1 O3Q       0.057033
     40 H18          6.3720    -5.6950    81.7930 h1         1 O3Q       0.057033
     41 H19          6.7080    -5.7870    83.5380 h1         1 O3Q       0.057033
     42 H11          4.1110    -6.0050    84.7040 hn         1 O3Q       0.541000
     43 C25          5.9600    -5.9600    82.7630 c3         1 O3Q       0.101300
     44 C20         -5.3110    -1.3260    84.6580 c3         1 O3Q      -0.097400
@<TRIPOS>BOND
     1     1     2 1   
     2     1    15 1   
     3     1    18 1   
     4     2    10 1   
     5     2    22 2   
     6     3    13 2   
     7     3    20 1   
     8     3    24 1   
     9     4     5 1   
    10     4    27 1   
    11     4    28 1   
    12     4    44 1   
    13     5    29 1   
    14     5    30 1   
    15     5    31 1   
    16     6     7 ar  
    17     6    11 ar  
    18     6    12 1   
    19     7     8 ar  
    20     7    32 1   
    21     8     9 ar  
    22     8    33 1   
    23     9    10 ar  
    24     9    17 1   
    25    10    11 ar  
    26    11    16 1   
    27    12    13 1   
    28    12    21 2   
    29    13    14 1   
    30    14    19 1   
    31    14    23 2   
    32    15    34 1   
    33    15    35 1   
    34    15    44 1   
    35    16    36 1   
    36    16    37 1   
    37    16    38 1   
    38    17    18 2   
    39    19    20 1   
    40    19    43 1   
    41    20    42 1   
    42    25    44 1   
    43    26    44 1   
    44    39    43 1   
    45    40    43 1   
    46    41    43 1   
@<TRIPOS>SUBSTRUCTURE
     1 O3Q         1 TEMP              0 ****  ****    0 ROOT
