@<TRIPOS>MOLECULE
O3Q
   44    46     1     0     0
SMALL
No Charge or Current Charge


@<TRIPOS>ATOM
      1 N12         -3.0090    -1.8820    85.3270 n          1 O3Q      -0.198800
      2 C13         -2.1480    -2.4310    84.3690 c          1 O3Q       0.560600
      3 C17          2.9230    -4.3200    84.0800 cc         1 O3Q       0.102000
      4 C21         -6.8590    -1.7950    84.7370 c3         1 O3Q      -0.072400
      5 C22         -7.8130    -0.8450    83.9860 c3         1 O3Q      -0.088100
      6 C1           1.6060    -1.7440    83.7100 ca         1 O3Q      -0.166600
      7 C2           1.8460    -0.7950    84.7150 ca         1 O3Q      -0.059000
      8 C3           0.8140    -0.3960    85.5680 ca         1 O3Q      -0.092000
      9 C4          -0.4770    -0.9310    85.4480 ca         1 O3Q       0.115400
     10 C5          -0.7390    -1.8910    84.4330 ca         1 O3Q      -0.173600
     11 C6           0.3070    -2.2930    83.5420 ca         1 O3Q       0.021700
     12 C7           2.7680    -2.1390    82.8420 c          1 O3Q       0.623900
     13 C8           3.3580    -3.4660    83.0870 cd         1 O3Q      -0.410400
     14 C14          4.4600    -4.0030    82.3200 c          1 O3Q       0.589200
     15 C19         -4.4250    -2.3070    85.4050 c3         1 O3Q       0.109000
     16 C23          0.0530    -3.2910    82.4020 c3         1 O3Q      -0.058800
     17 N10         -1.4300    -0.4560    86.3680 nc         1 O3Q      -0.247400
     18 N11         -2.6400    -0.9490    86.2620 nd         1 O3Q      -0.018600
     19 N15          4.6640    -5.2600    82.8750 n          1 O3Q      -0.278200
     20 N16          3.7490    -5.4490    83.9790 na         1 O3Q      -0.547200
     21 O9           3.1850    -1.3710    81.9870 o          1 O3Q      -0.498100
     22 O18         -2.5330    -3.2760    83.5700 o          1 O3Q      -0.523000
     23 O24          5.0940    -3.4960    81.4060 o          1 O3Q      -0.523000
     24 H1           2.1270    -4.2240    84.8200 h4         1 O3Q       0.231000
     25 H2          -5.0770    -1.3010    83.6020 hc         1 O3Q       0.054700
     26 H3          -5.2810    -0.3430    85.0690 hc         1 O3Q       0.054700
     27 H4          -7.1640    -1.8490    85.7890 hc         1 O3Q       0.038700
     28 H5          -6.9610    -2.8050    84.3210 hc         1 O3Q       0.038700
     29 H6          -8.8480    -1.1970    84.0720 hc         1 O3Q       0.035033
     30 H7          -7.7600     0.1680    84.4030 hc         1 O3Q       0.035033
     31 H8          -7.5540    -0.7970    82.9220 hc         1 O3Q       0.035033
     32 H9           2.8400    -0.3680    84.8390 ha         1 O3Q       0.131000
     33 H10          1.0210     0.3400    86.3420 ha         1 O3Q       0.142000
     34 H12         -4.7220    -2.3500    86.4620 h1         1 O3Q       0.068700
     35 H13         -4.5340    -3.3230    85.0050 h1         1 O3Q       0.068700
     36 H14         -0.2100    -4.2790    82.7960 hc         1 O3Q       0.063367
     37 H15         -0.7640    -2.9490    81.7570 hc         1 O3Q       0.063367
     38 H16          0.9100    -3.4360    81.7370 hc         1 O3Q       0.063367
     39 H17          5.6690    -7.1210    82.9970 h1         1 O3Q       0.057033
     40 H18          5.9790    -6.1910    81.5040 h1         1 O3Q       0.057033
     41 H19          6.7280    -5.6800    83.0460 h1         1 O3Q       0.057033
     42 H11          3.7180    -6.3560    84.4600 hn         1 O3Q       0.541000
     43 C25          5.8300    -6.1160    82.5890 c3         1 O3Q       0.101300
     44 C20         -5.3810    -1.3540    84.6540 c3         1 O3Q      -0.097400
@<TRIPOS>BOND
     1     1     2 1   
     2     1    15 1   
     3     1    18 1   
     4     2    10 1   
     5     2    22 2   
     6     3    13 2   
     7     3    20 1   
     8     3    24 1   
     9     4     5 1   
    10     4    27 1   
    11     4    28 1   
    12     4    44 1   
    13     5    29 1   
    14     5    30 1   
    15     5    31 1   
    16     6     7 ar  
    17     6    11 ar  
    18     6    12 1   
    19     7     8 ar  
    20     7    32 1   
    21     8     9 ar  
    22     8    33 1   
    23     9    10 ar  
    24     9    17 1   
    25    10    11 ar  
    26    11    16 1   
    27    12    13 1   
    28    12    21 2   
    29    13    14 1   
    30    14    19 1   
    31    14    23 2   
    32    15    34 1   
    33    15    35 1   
    34    15    44 1   
    35    16    36 1   
    36    16    37 1   
    37    16    38 1   
    38    17    18 2   
    39    19    20 1   
    40    19    43 1   
    41    20    42 1   
    42    25    44 1   
    43    26    44 1   
    44    39    43 1   
    45    40    43 1   
    46    41    43 1   
@<TRIPOS>SUBSTRUCTURE
     1 O3Q         1 TEMP              0 ****  ****    0 ROOT
