@<TRIPOS>MOLECULE
O3R
   34    35     1     0     0
SMALL
abcg2


@<TRIPOS>ATOM
      1 N1           6.1580     4.8500    21.5390 nb         1 O3R      -0.769000
      2 C4           1.5150     5.0430    24.7160 ca         1 O3R      -0.091000
      3 C5           0.5370     4.1960    25.2200 ca         1 O3R       0.124000
      4 C6           0.4320     2.8960    24.7230 ca         1 O3R       0.126000
      5 C7           1.3010     2.4580    23.7350 ca         1 O3R      -0.097000
      6 C8           5.3510     3.9700    22.1730 ca         1 O3R       0.665900
      7 C10          7.0140     3.5880    23.8680 ca         1 O3R       0.063000
      8 N            4.1370     3.7510    21.6120 nh         1 O3R      -0.783300
      9 C            3.7100     4.5360    20.4590 c3         1 O3R       0.222100
     10 C1           3.2120     2.7740    22.1500 c3         1 O3R       0.274100
     11 C11          7.8450     4.4870    23.1910 ca         1 O3R      -0.422500
     12 C12          7.3610     5.0920    22.0360 ca         1 O3R       0.503900
     13 C2           2.2840     3.3040    23.2280 ca         1 O3R      -0.107300
     14 C3           2.3830     4.5980    23.7270 ca         1 O3R      -0.087000
     15 C9           5.7620     3.3280    23.3700 ca         1 O3R      -0.257000
     16 S            9.4470     4.8690    23.7840 sy         1 O3R       1.172600
     17 CL1         -0.7790     1.8000    25.3220 cl         1 O3R      -0.175000
     18 H1           1.5920     6.0500    25.1010 ha         1 O3R       0.137000
     19 H2           1.2040     1.4470    23.3610 ha         1 O3R       0.130000
     20 H3           7.3510     3.1150    24.7800 ha         1 O3R       0.140000
     21 H4           2.6610     4.3220    20.2720 h1         1 O3R       0.049367
     22 H5           3.8260     5.6030    20.6500 h1         1 O3R       0.049367
     23 H6           4.2900     4.2830    19.5690 h1         1 O3R       0.049367
     24 H7           2.6130     2.3900    21.3230 h1         1 O3R       0.067200
     25 H8           3.7670     1.9190    22.5380 h1         1 O3R       0.067200
     26 H9           7.9740     5.8050    21.4950 h4         1 O3R       0.038100
     27 H10          3.1360     5.2730    23.3460 ha         1 O3R       0.132000
     28 H11          5.1060     2.6590    23.9040 ha         1 O3R       0.130000
     29 H12         11.3710     4.4900    22.7390 hn         1 O3R       0.472000
     30 H13         10.4360     3.1020    22.8260 hn         1 O3R       0.472000
     31 CL          -0.5360     4.7810    26.4580 cl         1 O3R      -0.172000
     32 O            9.5710     4.3060    25.1130 o          1 O3R      -0.558000
     33 N2          10.4290     4.1100    22.6940 n8         1 O3R      -1.008100
     34 O1           9.7190     6.2810    23.6190 o          1 O3R      -0.558000
@<TRIPOS>BOND
     1     1     6 ar  
     2     1    12 ar  
     3     2     3 ar  
     4     2    14 ar  
     5     2    18 1   
     6     3     4 ar  
     7     3    31 1   
     8     4     5 ar  
     9     4    17 1   
    10     5    13 ar  
    11     5    19 1   
    12     6     8 1   
    13     6    15 ar  
    14     7    11 ar  
    15     7    15 ar  
    16     7    20 1   
    17     8     9 1   
    18     8    10 1   
    19     9    21 1   
    20     9    22 1   
    21     9    23 1   
    22    10    13 1   
    23    10    24 1   
    24    10    25 1   
    25    11    12 ar  
    26    11    16 1   
    27    12    26 1   
    28    13    14 ar  
    29    14    27 1   
    30    15    28 1   
    31    16    32 2   
    32    16    33 1   
    33    16    34 2   
    34    29    33 1   
    35    30    33 1   
@<TRIPOS>SUBSTRUCTURE
     1 O3R         1 TEMP              0 ****  ****    0 ROOT
