@<TRIPOS>MOLECULE
O3R
   34    35     1     0     0
SMALL
No Charge or Current Charge


@<TRIPOS>ATOM
      1 N1           5.8500     4.9940    21.6850 nb         1 O3R      -0.769000
      2 C4           1.7340     5.3000    24.6110 ca         1 O3R      -0.091000
      3 C5           1.5850     4.3490    25.6340 ca         1 O3R       0.124000
      4 C6           1.8070     2.9840    25.3600 ca         1 O3R       0.126000
      5 C7           2.1770     2.5790    24.0660 ca         1 O3R      -0.097000
      6 C8           5.1130     3.8950    21.9080 ca         1 O3R       0.665900
      7 C10          6.6370     3.0850    23.6010 ca         1 O3R       0.063000
      8 N            3.9500     3.7890    21.1220 nh         1 O3R      -0.783300
      9 C            3.8140     4.5240    19.8400 c3         1 O3R       0.222100
     10 C1           2.7460     3.0930    21.6320 c3         1 O3R       0.274100
     11 C11          7.3910     4.2420    23.3670 ca         1 O3R      -0.422500
     12 C12          6.9750     5.1620    22.4100 ca         1 O3R       0.503900
     13 C2           2.3310     3.5300    23.0360 ca         1 O3R      -0.107300
     14 C3           2.1040     4.8930    23.3170 ca         1 O3R      -0.087000
     15 C9           5.4730     2.9150    22.8460 ca         1 O3R      -0.257000
     16 S            8.8730     4.5760    24.2530 sy         1 O3R       1.172600
     17 Cl1          1.6310     1.7620    26.6200 cl         1 O3R      -0.175000
     18 H1           1.5630     6.3530    24.8210 ha         1 O3R       0.137000
     19 H2           2.3460     1.5230    23.8670 ha         1 O3R       0.130000
     20 H3           6.9400     2.3390    24.3360 ha         1 O3R       0.140000
     21 H4           3.0280     4.0810    19.2130 h1         1 O3R       0.049367
     22 H5           3.5580     5.5760    20.0230 h1         1 O3R       0.049367
     23 H6           4.7490     4.4820    19.2660 h1         1 O3R       0.049367
     24 H7           1.8910     3.2740    20.9660 h1         1 O3R       0.067200
     25 H8           2.9180     2.0080    21.6200 h1         1 O3R       0.067200
     26 H9           7.5470     6.0670    22.2000 h4         1 O3R       0.038100
     27 H10          2.2220     5.6380    22.5320 ha         1 O3R       0.132000
     28 H11          4.8660     2.0280    22.9830 ha         1 O3R       0.130000
     29 H12         10.7000     4.6320    23.2960 hn         1 O3R       0.472000
     30 H13         10.4040     3.2300    23.9650 hn         1 O3R       0.472000
     31 Cl           1.1220     4.8930    27.2480 cl         1 O3R      -0.172000
     32 O            8.9350     3.7900    25.4810 o          1 O3R      -0.558000
     33 N2          10.0020     3.8920    23.3060 n8         1 O3R      -1.008100
     34 O1           9.1970     5.9980    24.2120 o          1 O3R      -0.558000
@<TRIPOS>BOND
     1     1     6 ar  
     2     1    12 ar  
     3     2     3 ar  
     4     2    14 ar  
     5     2    18 1   
     6     3     4 ar  
     7     3    31 1   
     8     4     5 ar  
     9     4    17 1   
    10     5    13 ar  
    11     5    19 1   
    12     6     8 1   
    13     6    15 ar  
    14     7    11 ar  
    15     7    15 ar  
    16     7    20 1   
    17     8     9 1   
    18     8    10 1   
    19     9    21 1   
    20     9    22 1   
    21     9    23 1   
    22    10    13 1   
    23    10    24 1   
    24    10    25 1   
    25    11    12 ar  
    26    11    16 1   
    27    12    26 1   
    28    13    14 ar  
    29    14    27 1   
    30    15    28 1   
    31    16    32 2   
    32    16    33 1   
    33    16    34 2   
    34    29    33 1   
    35    30    33 1   
@<TRIPOS>SUBSTRUCTURE
     1 O3R         1 TEMP              0 ****  ****    0 ROOT
