@<TRIPOS>MOLECULE
O3S
   46    47     1     0     0
SMALL
No Charge or Current Charge


@<TRIPOS>ATOM
      1 C            7.2030     0.2740    -0.8890 c3         1 O3S      -0.076100
      2 O            5.2680    -1.4610     0.8810 o          1 O3S      -0.578100
      3 N            3.9420     0.3290     0.2470 ns         1 O3S      -0.152000
      4 C2           5.1530    -0.2950     0.5200 c          1 O3S       0.605100
      5 C1           6.3790     0.6190     0.3720 c3         1 O3S      -0.161400
      6 C3           2.5970    -0.1360     0.2610 ca         1 O3S      -0.024000
      7 C8           2.2380    -1.4740     0.5170 ca         1 O3S      -0.134000
      8 C7           0.8870    -1.8500     0.5070 ca         1 O3S      -0.093000
      9 C6          -0.1120    -0.9020     0.2360 ca         1 O3S      -0.128000
     10 C5           0.2150     0.4440    -0.0330 ca         1 O3S       0.031000
     11 C4           1.5850     0.8040    -0.0100 ca         1 O3S      -0.171000
     12 C9          -0.8240     1.4600    -0.3230 cc         1 O3S      -0.090000
     13 C12         -2.1870     1.3450    -0.7310 cc         1 O3S      -0.131300
     14 C11         -2.7190     2.6100    -0.7750 cd         1 O3S      -0.198000
     15 N1          -1.7200     3.4950    -0.3640 na         1 O3S      -0.104000
     16 C10         -0.5540     2.7850    -0.0760 cd         1 O3S      -0.190000
     17 C13         -2.9040     0.0770    -1.1500 c3         1 O3S       0.245100
     18 N2          -3.6250    -0.6220    -0.0530 n3         1 O3S      -0.726600
     19 C14         -4.6700     0.2200     0.5810 c3         1 O3S       0.153100
     20 C15         -4.1250    -1.9560    -0.4890 c3         1 O3S       0.164800
     21 C16         -4.6690    -2.8750     0.6470 c3         1 O3S       0.145800
     22 N3          -5.0350    -4.2360     0.1780 n8         1 O3S      -1.001200
     23 H1           6.5950     0.3890    -1.7940 hc         1 O3S       0.043700
     24 H2           8.0720     0.9370    -0.9720 hc         1 O3S       0.043700
     25 H3           7.5660    -0.7610    -0.8460 hc         1 O3S       0.043700
     26 H4           4.0320     1.3010    -0.0180 hn         1 O3S       0.143000
     27 H5           7.0240     0.4890     1.2490 hc         1 O3S       0.055700
     28 H6           6.0630     1.6660     0.2970 hc         1 O3S       0.055700
     29 H7           2.9830    -2.2350     0.7250 ha         1 O3S       0.144000
     30 H8           0.6110    -2.8810     0.7170 ha         1 O3S       0.109000
     31 H9          -1.1430    -1.2260     0.2770 ha         1 O3S       0.147000
     32 H10          1.8810     1.8250    -0.2300 ha         1 O3S       0.102000
     33 H11         -3.7110     2.9420    -1.0610 h4         1 O3S       0.144000
     34 H12         -1.8270     4.5030    -0.2830 hn         1 O3S       0.345000
     35 H13          0.3390     3.2750     0.2930 h4         1 O3S       0.146000
     36 H14         -3.6160     0.3380    -1.9450 h1         1 O3S       0.036700
     37 H15         -2.1670    -0.5930    -1.6120 h1         1 O3S       0.036700
     38 H17         -5.4600     0.4710    -0.1400 h1         1 O3S       0.029700
     39 H18         -5.1320    -0.2930     1.4340 h1         1 O3S       0.029700
     40 H19         -4.2440     1.1560     0.9650 h1         1 O3S       0.029700
     41 H20         -4.9160    -1.8270    -1.2410 h1         1 O3S       0.037700
     42 H21         -3.3060    -2.4990    -0.9810 h1         1 O3S       0.037700
     43 H22         -3.9030    -2.9720     1.4300 h1         1 O3S       0.034700
     44 H23         -5.5620    -2.4190     1.0960 h1         1 O3S       0.034700
     45 H24         -4.1880    -4.7160    -0.1510 hn         1 O3S       0.393000
     46 H25         -5.3310    -4.8000     0.9850 hn         1 O3S       0.393000
@<TRIPOS>BOND
     1     1     5 1   
     2     1    23 1   
     3     1    24 1   
     4     1    25 1   
     5     2     4 2   
     6     3     4 1   
     7     3     6 1   
     8     3    26 1   
     9     4     5 1   
    10     5    27 1   
    11     5    28 1   
    12     6     7 ar  
    13     6    11 ar  
    14     7     8 ar  
    15     7    29 1   
    16     8     9 ar  
    17     8    30 1   
    18     9    10 ar  
    19     9    31 1   
    20    10    11 ar  
    21    10    12 1   
    22    11    32 1   
    23    12    13 1   
    24    12    16 2   
    25    13    14 2   
    26    13    17 1   
    27    14    15 1   
    28    14    33 1   
    29    15    16 1   
    30    15    34 1   
    31    16    35 1   
    32    17    18 1   
    33    17    36 1   
    34    17    37 1   
    35    18    19 1   
    36    18    20 1   
    37    19    38 1   
    38    19    39 1   
    39    19    40 1   
    40    20    21 1   
    41    20    41 1   
    42    20    42 1   
    43    21    22 1   
    44    21    43 1   
    45    21    44 1   
    46    22    45 1   
    47    22    46 1   
@<TRIPOS>SUBSTRUCTURE
     1 O3S         1 TEMP              0 ****  ****    0 ROOT
