@<TRIPOS>MOLECULE
O3S
   46    47     1     0     0
SMALL
bcc


@<TRIPOS>ATOM
      1 C            7.3620    -0.3700    -0.3880 c3         1 O3S      -0.076100
      2 O            4.9010    -1.5840     0.1900 o          1 O3S      -0.578100
      3 N            3.7040     0.3400    -0.0140 ns         1 O3S      -0.478100
      4 C2           4.8530    -0.3870    -0.0220 c          1 O3S       0.672100
      5 C1           6.0840     0.4460    -0.3180 c3         1 O3S      -0.161400
      6 C3           2.3840    -0.0730     0.1940 ca         1 O3S       0.068600
      7 C8           2.0130    -1.3650     0.5720 ca         1 O3S      -0.152000
      8 C7           0.6650    -1.6510     0.7440 ca         1 O3S      -0.111000
      9 C6          -0.3170    -0.6930     0.5550 ca         1 O3S      -0.146000
     10 C5           0.0410     0.6040     0.1750 ca         1 O3S       0.031000
     11 C4           1.3930     0.8910    -0.0040 ca         1 O3S      -0.189000
     12 C9          -0.9660     1.6480    -0.0320 cc         1 O3S      -0.090000
     13 C12         -2.2790     1.5170    -0.5940 cc         1 O3S      -0.131300
     14 C11         -2.8190     2.7790    -0.6240 cd         1 O3S      -0.165300
     15 N1          -1.9150     3.6490    -0.1060 na         1 O3S      -0.155100
     16 C10         -0.7890     2.9860     0.2540 cd         1 O3S      -0.157300
     17 C13         -2.9350     0.2810    -1.1190 c3         1 O3S       0.245100
     18 N2          -3.5200    -0.5610    -0.0810 n3         1 O3S      -0.726600
     19 C14         -4.6690     0.0670     0.5340 c3         1 O3S       0.153100
     20 C15         -3.8200    -1.8880    -0.5840 c3         1 O3S       0.164800
     21 C16         -4.1140    -2.8910     0.5240 c3         1 O3S       0.145800
     22 N3          -4.2520    -4.2240    -0.0430 n8         1 O3S      -0.890800
     23 H1           7.3190    -1.1150    -1.1810 hc         1 O3S       0.043700
     24 H2           8.2080     0.2850    -0.5930 hc         1 O3S       0.043700
     25 H3           7.5620    -0.8860     0.5500 hc         1 O3S       0.043700
     26 H4           3.8090     1.3220    -0.2190 hn         1 O3S       0.309500
     27 H5           6.1690     1.2200     0.4510 hc         1 O3S       0.055700
     28 H6           5.9240     0.9840    -1.2570 hc         1 O3S       0.055700
     29 H7           2.7480    -2.1350     0.7270 ha         1 O3S       0.162000
     30 H8           0.3800    -2.6520     1.0410 ha         1 O3S       0.127000
     31 H9          -1.3610    -0.9340     0.7140 ha         1 O3S       0.165000
     32 H10          1.6850     1.8840    -0.3280 ha         1 O3S       0.120000
     33 H11         -3.7790     3.1130    -0.9860 h4         1 O3S       0.162000
     34 H12         -2.0610     4.6380     0.0060 hn         1 O3S       0.294700
     35 H13          0.0460     3.4990     0.7010 h4         1 O3S       0.164000
     36 H14         -3.6890     0.5640    -1.8730 h1         1 O3S       0.036700
     37 H15         -2.1890    -0.3180    -1.6490 h1         1 O3S       0.036700
     38 H17         -5.5220     0.1670    -0.1560 h1         1 O3S       0.029700
     39 H18         -5.0040    -0.5020     1.4010 h1         1 O3S       0.029700
     40 H19         -4.4080     1.0640     0.8880 h1         1 O3S       0.029700
     41 H20         -4.6570    -1.8830    -1.3020 h1         1 O3S       0.037700
     42 H21         -2.9400    -2.2430    -1.1320 h1         1 O3S       0.037700
     43 H22         -3.3260    -2.8050     1.2860 h1         1 O3S       0.034700
     44 H23         -5.0550    -2.6440     1.0200 h1         1 O3S       0.034700
     45 H24         -3.3470    -4.5510    -0.3610 hn         1 O3S       0.337800
     46 H25         -4.5330    -4.8710     0.6820 hn         1 O3S       0.337800
@<TRIPOS>BOND
     1     1     5 1   
     2     1    23 1   
     3     1    24 1   
     4     1    25 1   
     5     2     4 2   
     6     3     4 1   
     7     3     6 1   
     8     3    26 1   
     9     4     5 1   
    10     5    27 1   
    11     5    28 1   
    12     6     7 ar  
    13     6    11 ar  
    14     7     8 ar  
    15     7    29 1   
    16     8     9 ar  
    17     8    30 1   
    18     9    10 ar  
    19     9    31 1   
    20    10    11 ar  
    21    10    12 1   
    22    11    32 1   
    23    12    13 1   
    24    12    16 2   
    25    13    14 2   
    26    13    17 1   
    27    14    15 1   
    28    14    33 1   
    29    15    16 1   
    30    15    34 1   
    31    16    35 1   
    32    17    18 1   
    33    17    36 1   
    34    17    37 1   
    35    18    19 1   
    36    18    20 1   
    37    19    38 1   
    38    19    39 1   
    39    19    40 1   
    40    20    21 1   
    41    20    41 1   
    42    20    42 1   
    43    21    22 1   
    44    21    43 1   
    45    21    44 1   
    46    22    45 1   
    47    22    46 1   
@<TRIPOS>SUBSTRUCTURE
     1 O3S         1 TEMP              0 ****  ****    0 ROOT
