@<TRIPOS>MOLECULE
O3T
   56    58     1     0     0
SMALL
No Charge or Current Charge


@<TRIPOS>ATOM
      1 C1         -20.4600   -25.1750    -3.4840 c          1 O3T       0.590100
      2 C2         -21.5790   -25.1250    -4.5320 c3         1 O3T       0.037600
      3 C3         -19.5870   -24.0530    -1.3990 c3         1 O3T       0.111000
      4 C4         -18.2990   -23.3110    -1.8610 c6         1 O3T      -0.088700
      5 C5         -17.2830   -23.1780    -0.6970 c6         1 O3T      -0.091400
      6 C6         -16.0100   -22.4160    -1.1380 c6         1 O3T       0.096000
      7 C7         -16.2510   -19.8890    -0.9400 c          1 O3T       0.583100
      8 C11        -17.3610   -22.3470     3.3210 ca         1 O3T      -0.067500
      9 C12        -18.4890   -21.5140     3.3690 ca         1 O3T       0.085000
     10 O1         -19.5380   -25.9790    -3.5350 o          1 O3T      -0.607100
     11 N1         -20.5660   -24.2400    -2.4750 ns         1 O3T      -0.491900
     12 N2         -16.3440   -21.0790    -1.7070 n          1 O3T      -0.401800
     13 O2         -17.1770   -19.0840    -0.9850 o          1 O3T      -0.610100
     14 C8         -14.9930   -19.6250    -0.0040 c6         1 O3T       0.117000
     15 O3         -15.0450   -20.3990     1.2360 os         1 O3T      -0.363100
     16 C9         -16.2030   -20.7090     1.9260 ca         1 O3T       0.139100
     17 C10        -16.2210   -21.9390     2.6060 ca         1 O3T      -0.160500
     18 C13        -18.4730   -20.2720     2.7160 ca         1 O3T      -0.067500
     19 C14        -17.3320   -19.8650     2.0000 ca         1 O3T      -0.160500
     20 C15        -13.6740   -20.0760    -0.7350 c6         1 O3T      -0.075400
     21 C16        -12.3850   -19.7840     0.0860 c6         1 O3T      -0.117900
     22 C17        -12.2880   -18.2950     0.4780 c6         1 O3T       0.170000
     23 F1         -11.1920   -18.1100     1.3370 f          1 O3T      -0.125000
     24 F2         -12.0250   -17.5230    -0.6690 f          1 O3T      -0.125000
     25 C18        -13.5700   -17.7780     1.1650 c6         1 O3T      -0.117900
     26 C19        -14.8300   -18.0940     0.3120 c6         1 O3T      -0.075400
     27 C20        -17.2950   -21.1750    -2.8480 c6         1 O3T       0.096000
     28 C21        -18.6000   -21.9060    -2.4510 c6         1 O3T      -0.091400
     29 H1         -21.4630   -25.9740    -5.2150 h1         1 O3T       0.096700
     30 H2         -22.5460   -25.1970    -4.0220 h1         1 O3T       0.096700
     31 Cl1        -21.5680   -23.5860    -5.5230 cl         1 O3T      -0.279000
     32 H4         -20.0610   -23.4800    -0.5910 h1         1 O3T       0.061700
     33 H5         -19.3120   -25.0360    -0.9950 h1         1 O3T       0.061700
     34 H6         -17.8430   -23.9300    -2.6470 hc         1 O3T       0.065700
     35 H7         -17.7500   -22.6470     0.1440 hc         1 O3T       0.053450
     36 H8         -17.0030   -24.1720    -0.3220 hc         1 O3T       0.053450
     37 H9         -15.4770   -23.0040    -1.8990 h1         1 O3T       0.062200
     38 H10        -15.3440   -22.3320    -0.2720 h1         1 O3T       0.062200
     39 H11        -17.3700   -23.3060     3.8340 ha         1 O3T       0.133000
     40 H12        -21.3560   -23.6060    -2.5240 hn         1 O3T       0.330500
     41 H13        -15.3480   -22.5860     2.5660 ha         1 O3T       0.134000
     42 H14        -19.3440   -19.6230     2.7660 ha         1 O3T       0.133000
     43 H15        -17.3470   -18.8930     1.5240 ha         1 O3T       0.134000
     44 H16        -13.6860   -21.1450    -0.9730 hc         1 O3T       0.073200
     45 H17        -13.6080   -19.5650    -1.7070 hc         1 O3T       0.073200
     46 H18        -12.3770   -20.4030     0.9940 hc         1 O3T       0.075450
     47 H19        -11.4980   -20.0760    -0.4920 hc         1 O3T       0.075450
     48 H20        -13.4920   -16.6950     1.3340 hc         1 O3T       0.075450
     49 H21        -13.6680   -18.2390     2.1570 hc         1 O3T       0.075450
     50 H22        -14.7760   -17.5340    -0.6320 hc         1 O3T       0.073200
     51 H23        -15.7100   -17.6980     0.8290 hc         1 O3T       0.073200
     52 H24        -16.8080   -21.7220    -3.6680 h1         1 O3T       0.062200
     53 H25        -17.5330   -20.1730    -3.2330 h1         1 O3T       0.062200
     54 H26        -19.1470   -21.3000    -1.7160 hc         1 O3T       0.053450
     55 H27        -19.2480   -21.9900    -3.3340 hc         1 O3T       0.053450
     56 Cl2        -19.9190   -22.0220     4.2580 cl         1 O3T      -0.210000
@<TRIPOS>BOND
     1     1     2 1   
     2     1    10 2   
     3     1    11 1   
     4     2    29 1   
     5     2    30 1   
     6     2    31 1   
     7     3     4 1   
     8     3    11 1   
     9     3    32 1   
    10     3    33 1   
    11     4     5 1   
    12     4    28 1   
    13     4    34 1   
    14     5     6 1   
    15     5    35 1   
    16     5    36 1   
    17     6    12 1   
    18     6    37 1   
    19     6    38 1   
    20     7    12 1   
    21     7    13 2   
    22     7    14 1   
    23     8     9 ar  
    24     8    17 ar  
    25     8    39 1   
    26     9    18 ar  
    27     9    56 1   
    28    11    40 1   
    29    12    27 1   
    30    14    15 1   
    31    14    20 1   
    32    14    26 1   
    33    15    16 1   
    34    16    17 ar  
    35    16    19 ar  
    36    17    41 1   
    37    18    19 ar  
    38    18    42 1   
    39    19    43 1   
    40    20    21 1   
    41    20    44 1   
    42    20    45 1   
    43    21    22 1   
    44    21    46 1   
    45    21    47 1   
    46    22    23 1   
    47    22    24 1   
    48    22    25 1   
    49    25    26 1   
    50    25    48 1   
    51    25    49 1   
    52    26    50 1   
    53    26    51 1   
    54    27    28 1   
    55    27    52 1   
    56    27    53 1   
    57    28    54 1   
    58    28    55 1   
@<TRIPOS>SUBSTRUCTURE
     1 O3T         1 TEMP              0 ****  ****    0 ROOT
