@<TRIPOS>MOLECULE
O3T
   56    58     1     0     0
SMALL
abcg2


@<TRIPOS>ATOM
      1 C1         -20.5150   -25.1610    -3.2160 c          1 O3T       0.590100
      2 C2         -21.6670   -25.1900    -4.2080 c3         1 O3T       0.037600
      3 C3         -19.4090   -24.0570    -1.3240 c3         1 O3T       0.111000
      4 C4         -18.2320   -23.2510    -1.8760 c6         1 O3T      -0.088700
      5 C5         -17.1100   -23.1740    -0.8420 c6         1 O3T      -0.091400
      6 C6         -15.9460   -22.3140    -1.3330 c6         1 O3T       0.096000
      7 C7         -15.9910   -19.7780    -1.2860 c          1 O3T       0.583100
      8 C11        -17.3570   -21.9950     3.3510 ca         1 O3T      -0.067500
      9 C12        -18.5270   -21.2920     3.0870 ca         1 O3T       0.085000
     10 O1         -19.6590   -26.0400    -3.3360 o          1 O3T      -0.607100
     11 N1         -20.4970   -24.2100    -2.2800 ns         1 O3T      -0.491900
     12 N2         -16.4100   -20.9800    -1.7310 n          1 O3T      -0.401800
     13 O2         -16.4100   -18.7200    -1.7630 o          1 O3T      -0.610100
     14 C8         -14.9120   -19.6860    -0.1710 c6         1 O3T       0.117000
     15 O3         -15.0880   -20.6460     0.8890 os         1 O3T      -0.363100
     16 C9         -16.2500   -20.7650     1.5910 ca         1 O3T       0.139100
     17 C10        -16.2230   -21.7260     2.6030 ca         1 O3T      -0.160500
     18 C13        -18.5660   -20.3270     2.0950 ca         1 O3T      -0.067500
     19 C14        -17.4260   -20.0580     1.3430 ca         1 O3T      -0.160500
     20 C15        -13.5450   -20.0130    -0.7990 c6         1 O3T      -0.075400
     21 C16        -12.3920   -19.8640     0.1970 c6         1 O3T      -0.117900
     22 C17        -12.4070   -18.5030     0.8470 c6         1 O3T       0.170000
     23 F1         -11.4180   -18.4310     1.8150 f          1 O3T      -0.125000
     24 F2         -12.0420   -17.5440    -0.0960 f          1 O3T      -0.125000
     25 C18        -13.7390   -18.1250     1.4460 c6         1 O3T      -0.117900
     26 C19        -14.8620   -18.2670     0.4180 c6         1 O3T      -0.075400
     27 C20        -17.4400   -21.0330    -2.7750 c6         1 O3T       0.096000
     28 C21        -18.6430   -21.8410    -2.3010 c6         1 O3T      -0.091400
     29 H1         -21.2560   -25.1190    -5.2120 h1         1 O3T       0.096700
     30 H2         -22.1980   -26.1320    -4.0980 h1         1 O3T       0.096700
     31 CL1        -22.8930   -23.8720    -4.0510 cl         1 O3T      -0.279000
     32 H4         -19.8180   -23.5610    -0.4420 h1         1 O3T       0.061700
     33 H5         -19.0710   -25.0500    -1.0280 h1         1 O3T       0.061700
     34 H6         -17.8500   -23.7760    -2.7600 hc         1 O3T       0.065700
     35 H7         -17.5000   -22.7560     0.0900 hc         1 O3T       0.053450
     36 H8         -16.7300   -24.1740    -0.6160 hc         1 O3T       0.053450
     37 H9         -15.4960   -22.7790    -2.2160 h1         1 O3T       0.062200
     38 H10        -15.1860   -22.2420    -0.5690 h1         1 O3T       0.062200
     39 H11        -17.3330   -22.7460     4.1280 ha         1 O3T       0.133000
     40 H12        -21.2330   -23.5220    -2.2860 hn         1 O3T       0.330500
     41 H13        -15.3060   -22.2710     2.7830 ha         1 O3T       0.134000
     42 H14        -19.4790   -19.7850     1.8950 ha         1 O3T       0.133000
     43 H15        -17.4890   -19.3110     0.5690 ha         1 O3T       0.134000
     44 H16        -13.5450   -21.0240    -1.2000 hc         1 O3T       0.073200
     45 H17        -13.4050   -19.3310    -1.6390 hc         1 O3T       0.073200
     46 H18        -12.4760   -20.6100     0.9870 hc         1 O3T       0.075450
     47 H19        -11.4340   -20.0070    -0.3060 hc         1 O3T       0.075450
     48 H20        -13.6840   -17.0990     1.8110 hc         1 O3T       0.075450
     49 H21        -13.9120   -18.7800     2.3020 hc         1 O3T       0.075450
     50 H22        -14.7100   -17.5670    -0.4000 hc         1 O3T       0.073200
     51 H23        -15.8100   -18.0060     0.8820 hc         1 O3T       0.073200
     52 H24        -16.9990   -21.5010    -3.6620 h1         1 O3T       0.062200
     53 H25        -17.7210   -20.0180    -3.0290 h1         1 O3T       0.062200
     54 H26        -19.1100   -21.3250    -1.4560 hc         1 O3T       0.053450
     55 H27        -19.3780   -21.8810    -3.1080 hc         1 O3T       0.053450
     56 CL2        -19.9710   -21.6350     4.0210 cl         1 O3T      -0.210000
@<TRIPOS>BOND
     1     1     2 1   
     2     1    10 2   
     3     1    11 1   
     4     2    29 1   
     5     2    30 1   
     6     2    31 1   
     7     3     4 1   
     8     3    11 1   
     9     3    32 1   
    10     3    33 1   
    11     4     5 1   
    12     4    28 1   
    13     4    34 1   
    14     5     6 1   
    15     5    35 1   
    16     5    36 1   
    17     6    12 1   
    18     6    37 1   
    19     6    38 1   
    20     7    12 1   
    21     7    13 2   
    22     7    14 1   
    23     8     9 ar  
    24     8    17 ar  
    25     8    39 1   
    26     9    18 ar  
    27     9    56 1   
    28    11    40 1   
    29    12    27 1   
    30    14    15 1   
    31    14    20 1   
    32    14    26 1   
    33    15    16 1   
    34    16    17 ar  
    35    16    19 ar  
    36    17    41 1   
    37    18    19 ar  
    38    18    42 1   
    39    19    43 1   
    40    20    21 1   
    41    20    44 1   
    42    20    45 1   
    43    21    22 1   
    44    21    46 1   
    45    21    47 1   
    46    22    23 1   
    47    22    24 1   
    48    22    25 1   
    49    25    26 1   
    50    25    48 1   
    51    25    49 1   
    52    26    50 1   
    53    26    51 1   
    54    27    28 1   
    55    27    52 1   
    56    27    53 1   
    57    28    54 1   
    58    28    55 1   
@<TRIPOS>SUBSTRUCTURE
     1 O3T         1 TEMP              0 ****  ****    0 ROOT
