@<TRIPOS>MOLECULE
O3U
   39    40     1     0     0
SMALL
abcg2


@<TRIPOS>ATOM
      1 N1           8.3550    -4.3090    21.6720 ns         1 O3U      -0.430400
      2 N3           5.0460    -3.5460    20.5470 n1         1 O3U      -0.446000
      3 C4           5.2630    -4.9570    23.6690 c6         1 O3U       0.030200
      4 C5           3.8830    -4.3010    23.8930 c6         1 O3U      -0.068400
      5 C6           2.7900    -5.2470    24.4020 c6         1 O3U      -0.072900
      6 C7           2.7080    -6.5330    23.5800 c6         1 O3U      -0.075400
      7 C8           4.0730    -7.2150    23.5050 c6         1 O3U      -0.072900
      8 C10          6.1570    -3.9470    22.8700 c6         1 O3U      -0.076900
      9 C13          9.3550    -3.2600    19.7230 c3         1 O3U      -0.172100
     10 C14          5.5720    -3.7000    21.5570 c1         1 O3U       0.319900
     11 C11          7.5910    -4.4630    22.8100 c2         1 O3U       0.539900
     12 C12          8.4380    -3.1500    20.9060 c          1 O3U       0.610100
     13 O            7.8030    -2.1520    21.1890 o          1 O3U      -0.548100
     14 N2           8.1170    -5.1040    23.7870 ne         1 O3U      -0.671300
     15 C1           7.3840    -5.2970    24.9410 ce         1 O3U       0.284200
     16 S            8.3030    -5.6710    26.3900 ss         1 O3U      -0.241600
     17 C           10.0240    -5.5480    25.8340 c3         1 O3U       0.036900
     18 C2           6.0210    -5.2160    24.9700 cf         1 O3U      -0.079900
     19 C3           5.3660    -5.4190    26.1980 ch         1 O3U       0.304700
     20 N            4.8720    -5.5780    27.2330 n1         1 O3U      -0.455000
     21 C9           5.1070    -6.2810    22.8810 c6         1 O3U      -0.068400
     22 H1           9.1320    -4.9550    21.6020 hn         1 O3U       0.332500
     23 H2           3.9980    -3.4490    24.5670 hc         1 O3U       0.049700
     24 H3           3.5520    -3.8980    22.9330 hc         1 O3U       0.049700
     25 H4           1.8370    -4.7140    24.3680 hc         1 O3U       0.048200
     26 H5           2.9620    -5.5040    25.4470 hc         1 O3U       0.048200
     27 H6           2.3690    -6.3010    22.5640 hc         1 O3U       0.043200
     28 H7           1.9680    -7.2070    24.0180 hc         1 O3U       0.043200
     29 H8           4.0130    -8.1270    22.9080 hc         1 O3U       0.048200
     30 H9           4.3930    -7.5170    24.5070 hc         1 O3U       0.048200
     31 H10          6.1710    -2.9940    23.4120 hc         1 O3U       0.115700
     32 H11          9.5760    -2.2650    19.3440 hc         1 O3U       0.073367
     33 H12         10.2790    -3.7780    19.9810 hc         1 O3U       0.073367
     34 H13          8.8540    -3.8400    18.9430 hc         1 O3U       0.073367
     35 H14         10.6120    -5.7630    26.7250 h1         1 O3U       0.070367
     36 H15         10.2350    -6.2840    25.0640 h1         1 O3U       0.070367
     37 H16         10.2450    -4.5460    25.4790 h1         1 O3U       0.070367
     38 H17          6.0770    -6.7770    22.8040 hc         1 O3U       0.049700
     39 H18          4.7850    -6.0440    21.8630 hc         1 O3U       0.049700
@<TRIPOS>BOND
     1     1    11 1   
     2     1    12 1   
     3     1    22 1   
     4     2    10 3   
     5     3     4 1   
     6     3     8 1   
     7     3    18 1   
     8     3    21 1   
     9     4     5 1   
    10     4    23 1   
    11     4    24 1   
    12     5     6 1   
    13     5    25 1   
    14     5    26 1   
    15     6     7 1   
    16     6    27 1   
    17     6    28 1   
    18     7    21 1   
    19     7    29 1   
    20     7    30 1   
    21     8    10 1   
    22     8    11 1   
    23     8    31 1   
    24     9    12 1   
    25     9    32 1   
    26     9    33 1   
    27     9    34 1   
    28    11    14 2   
    29    12    13 2   
    30    14    15 1   
    31    15    16 1   
    32    15    18 2   
    33    16    17 1   
    34    17    35 1   
    35    17    36 1   
    36    17    37 1   
    37    18    19 1   
    38    19    20 3   
    39    21    38 1   
    40    21    39 1   
@<TRIPOS>SUBSTRUCTURE
     1 O3U         1 TEMP              0 ****  ****    0 ROOT
