@<TRIPOS>MOLECULE
O3U
   39    40     1     0     0
SMALL
No Charge or Current Charge


@<TRIPOS>ATOM
      1 N1           8.4030    -4.4000    21.4940 ns         1 O3U      -0.430400
      2 N3           5.1180    -3.6380    20.3660 n1         1 O3U      -0.446000
      3 C4           5.2600    -5.1000    23.6180 c6         1 O3U       0.030200
      4 C5           3.9370    -4.2970    23.9740 c6         1 O3U      -0.068400
      5 C6           2.7530    -5.1390    24.5410 c6         1 O3U      -0.072900
      6 C7           2.4980    -6.4240    23.7230 c6         1 O3U      -0.075400
      7 C8           3.7910    -7.2560    23.5700 c6         1 O3U      -0.072900
      8 C10          6.1930    -4.1800    22.7240 c6         1 O3U      -0.076900
      9 C13          9.5880    -3.0930    19.8100 c3         1 O3U      -0.172100
     10 C14          5.6030    -3.8620    21.4010 c1         1 O3U       0.319900
     11 C11          7.6140    -4.7570    22.5810 c2         1 O3U       0.539900
     12 C12          8.6490    -3.1430    21.0060 c          1 O3U       0.610100
     13 O            8.1700    -2.1330    21.4990 o          1 O3U      -0.548100
     14 N2           8.1740    -5.4840    23.4970 ne         1 O3U      -0.671300
     15 C1           7.4920    -5.6840    24.7010 ce         1 O3U       0.284200
     16 S            8.5090    -6.1390    26.1010 ss         1 O3U      -0.241600
     17 C           10.0100    -5.0720    25.9520 c3         1 O3U       0.036900
     18 C2           6.1490    -5.4890    24.8500 cf         1 O3U      -0.079900
     19 C3           5.5000    -5.6370    26.1190 ch         1 O3U       0.304700
     20 N            5.0230    -5.7610    27.1780 n1         1 O3U      -0.455000
     21 C9           4.8840    -6.4260    22.8550 c6         1 O3U      -0.068400
     22 H1           8.9480    -5.1450    21.0870 hn         1 O3U       0.332500
     23 H2           4.1700    -3.4770    24.6670 hc         1 O3U       0.049700
     24 H3           3.5490    -3.8030    23.0730 hc         1 O3U       0.049700
     25 H4           1.8430    -4.5240    24.5330 hc         1 O3U       0.048200
     26 H5           2.9060    -5.3980    25.5930 hc         1 O3U       0.048200
     27 H6           2.1080    -6.1600    22.7300 hc         1 O3U       0.043200
     28 H7           1.7210    -7.0280    24.2120 hc         1 O3U       0.043200
     29 H8           3.5770    -8.1610    22.9850 hc         1 O3U       0.048200
     30 H9           4.1430    -7.6020    24.5510 hc         1 O3U       0.048200
     31 H10          6.3030    -3.2110    23.2270 hc         1 O3U       0.115700
     32 H11          9.7630    -2.0720    19.4540 hc         1 O3U       0.073367
     33 H12         10.5270    -3.5950    20.0710 hc         1 O3U       0.073367
     34 H13          9.1910    -3.7360    19.0160 hc         1 O3U       0.073367
     35 H14         10.6830    -5.2600    26.7970 h1         1 O3U       0.070367
     36 H15         10.5360    -5.2980    25.0160 h1         1 O3U       0.070367
     37 H16          9.7140    -4.0150    25.9540 h1         1 O3U       0.070367
     38 H17          5.7770    -7.0500    22.7130 hc         1 O3U       0.049700
     39 H18          4.5110    -6.2100    21.8450 hc         1 O3U       0.049700
@<TRIPOS>BOND
     1     1    11 1   
     2     1    12 1   
     3     1    22 1   
     4     2    10 3   
     5     3     4 1   
     6     3     8 1   
     7     3    18 1   
     8     3    21 1   
     9     4     5 1   
    10     4    23 1   
    11     4    24 1   
    12     5     6 1   
    13     5    25 1   
    14     5    26 1   
    15     6     7 1   
    16     6    27 1   
    17     6    28 1   
    18     7    21 1   
    19     7    29 1   
    20     7    30 1   
    21     8    10 1   
    22     8    11 1   
    23     8    31 1   
    24     9    12 1   
    25     9    32 1   
    26     9    33 1   
    27     9    34 1   
    28    11    14 2   
    29    12    13 2   
    30    14    15 1   
    31    15    16 1   
    32    15    18 2   
    33    16    17 1   
    34    17    35 1   
    35    17    36 1   
    36    17    37 1   
    37    18    19 1   
    38    19    20 3   
    39    21    38 1   
    40    21    39 1   
@<TRIPOS>SUBSTRUCTURE
     1 O3U         1 TEMP              0 ****  ****    0 ROOT
