@<TRIPOS>MOLECULE
O3V
   47    51     1     0     0
SMALL
No Charge or Current Charge


@<TRIPOS>ATOM
      1 C2           0.5470     1.5080    -0.2730 ca         1 O3V       0.286000
      2 C3           0.3890     0.1380    -0.4130 ca         1 O3V      -0.302000
      3 C4          -0.8720    -0.4880    -0.4750 ca         1 O3V       0.173000
      4 C5          -1.9950     0.3800    -0.3970 ca         1 O3V      -0.260600
      5 C6          -3.4280    -0.0710    -0.5770 c          1 O3V       0.594700
      6 C7          -4.5370     0.9890    -0.5030 c6         1 O3V      -0.171400
      7 C8          -4.2070     2.1910     0.4080 c6         1 O3V      -0.036000
      8 C13          1.7150    -0.3750    -0.4110 cc         1 O3V       0.185000
      9 C17          5.8720    -0.0010     1.2500 ca         1 O3V      -0.105500
     10 C18          6.7340     0.5680     0.2980 ca         1 O3V      -0.100000
     11 C19          6.2040     1.1840    -0.8490 ca         1 O3V      -0.105500
     12 C20          4.8120     1.2280    -1.0450 ca         1 O3V      -0.087500
     13 C21         -5.3400     3.2560     0.3190 c3         1 O3V      -0.085600
     14 C22         -4.1010     1.7460     1.9000 c3         1 O3V      -0.085600
     15 C25         -0.1730    -2.7490    -1.3990 cc         1 O3V      -0.141000
     16 C26         -0.2380    -4.1280    -1.0890 cc         1 O3V      -0.135000
     17 C27         -1.0360    -4.4110    -0.0130 cd         1 O3V      -0.245000
     18 C10         -1.7500     1.7630    -0.2280 ca         1 O3V       0.432300
     19 C15          3.9410     0.6530    -0.0970 ca         1 O3V       0.000800
     20 C16          4.4800     0.0420     1.0560 ca         1 O3V      -0.087500
     21 C24         -0.9650    -1.9560    -0.6020 cd         1 O3V      -0.193000
     22 C9          -2.8720     2.7920    -0.0910 c6         1 O3V      -0.136700
     23 N1          -0.5160     2.3120    -0.1800 nb         1 O3V      -0.660000
     24 N11          2.5610     0.7100    -0.2970 na         1 O3V       0.205700
     25 N12          1.8900     1.9190    -0.2130 nc         1 O3V      -0.256400
     26 O14         -3.7490    -1.2310    -0.7910 o          1 O3V      -0.531100
     27 O23          2.0210    -1.6030     0.0560 oh         1 O3V      -0.507100
     28 S28         -1.7440    -2.9360     0.6680 ss         1 O3V       0.272000
     29 H29         -4.6440     1.3680    -1.5290 hc         1 O3V       0.070700
     30 H30         -5.4920     0.5070    -0.2520 hc         1 O3V       0.070700
     31 H35          7.8110     0.5350     0.4490 ha         1 O3V       0.118000
     32 H36          6.8710     1.6280    -1.5850 ha         1 O3V       0.120500
     33 H37          4.4090     1.7090    -1.9340 ha         1 O3V       0.134500
     34 H39         -6.3010     2.8470     0.6550 hc         1 O3V       0.038367
     35 H38         -5.1170     4.1310     0.9430 hc         1 O3V       0.038367
     36 H40         -5.4770     3.6130    -0.7090 hc         1 O3V       0.038367
     37 H41         -3.3130     1.0010     2.0550 hc         1 O3V       0.038367
     38 H42         -3.8760     2.5970     2.5540 hc         1 O3V       0.038367
     39 H43         -5.0410     1.3030     2.2510 hc         1 O3V       0.038367
     40 H45          0.4540    -2.3700    -2.2030 ha         1 O3V       0.141000
     41 H46          0.3160    -4.8770    -1.6500 ha         1 O3V       0.138000
     42 H47         -1.2490    -5.3750     0.4340 h4         1 O3V       0.153000
     43 H33          3.8200    -0.3950     1.8020 ha         1 O3V       0.134500
     44 H32         -3.0190     3.2660    -1.0710 hc         1 O3V       0.070200
     45 H31         -2.5590     3.6000     0.5860 hc         1 O3V       0.070200
     46 H44          1.1990    -2.1330    -0.0320 ho         1 O3V       0.512000
     47 H34          6.2820    -0.4750     2.1400 ha         1 O3V       0.120500
@<TRIPOS>BOND
     1     1     2 ar  
     2     1    23 ar  
     3     1    25 2   
     4     2     3 ar  
     5     2     8 2   
     6     3     4 ar  
     7     3    21 1   
     8     4     5 1   
     9     4    18 ar  
    10     5     6 1   
    11     5    26 2   
    12     6     7 1   
    13     6    29 1   
    14     6    30 1   
    15     7    13 1   
    16     7    14 1   
    17     7    22 1   
    18     8    24 1   
    19     8    27 1   
    20     9    10 ar  
    21     9    20 ar  
    22     9    47 1   
    23    10    11 ar  
    24    10    31 1   
    25    11    12 ar  
    26    11    32 1   
    27    12    19 ar  
    28    12    33 1   
    29    13    34 1   
    30    13    35 1   
    31    13    36 1   
    32    14    37 1   
    33    14    38 1   
    34    14    39 1   
    35    15    16 1   
    36    15    21 2   
    37    15    40 1   
    38    16    17 2   
    39    16    41 1   
    40    17    28 1   
    41    17    42 1   
    42    18    22 1   
    43    18    23 ar  
    44    19    20 ar  
    45    19    24 1   
    46    20    43 1   
    47    21    28 1   
    48    22    44 1   
    49    22    45 1   
    50    24    25 1   
    51    27    46 1   
@<TRIPOS>SUBSTRUCTURE
     1 O3V         1 TEMP              0 ****  ****    0 ROOT
