@<TRIPOS>MOLECULE
O3V
   47    51     1     0     0
SMALL
abcg2


@<TRIPOS>ATOM
      1 C2           0.5640     1.4540    -0.1080 ca         1 O3V       0.286000
      2 C3           0.4090     0.0460    -0.2160 ca         1 O3V      -0.302000
      3 C4          -0.8640    -0.5180    -0.3360 ca         1 O3V       0.173000
      4 C5          -1.9300     0.3700    -0.3540 ca         1 O3V      -0.260600
      5 C6          -3.3210    -0.1070    -0.5250 c          1 O3V       0.594700
      6 C7          -4.4350     0.9080    -0.4630 c6         1 O3V      -0.171400
      7 C8          -4.1050     2.1790     0.3160 c6         1 O3V      -0.036000
      8 C13          1.7180    -0.4410    -0.1340 cc         1 O3V       0.185000
      9 C17          5.9660    -0.1430     1.0430 ca         1 O3V      -0.105500
     10 C18          6.6780     0.7370     0.2400 ca         1 O3V      -0.100000
     11 C19          6.0020     1.5790    -0.6340 ca         1 O3V      -0.105500
     12 C20          4.6190     1.5370    -0.7150 ca         1 O3V      -0.087500
     13 C21         -5.2280     3.1980     0.1410 c3         1 O3V      -0.085600
     14 C22         -3.9370     1.8740     1.8060 c3         1 O3V      -0.085600
     15 C25         -0.5080    -2.7800    -1.4270 cc         1 O3V      -0.141000
     16 C26         -0.6530    -4.1660    -1.1400 cc         1 O3V      -0.135000
     17 C27         -1.1720    -4.3890     0.0970 cd         1 O3V      -0.245000
     18 C10         -1.6650     1.7840    -0.2330 ca         1 O3V       0.432300
     19 C15          3.9170     0.6500     0.0920 ca         1 O3V       0.000800
     20 C16          4.5810    -0.1870     0.9790 ca         1 O3V      -0.087500
     21 C24         -0.9460    -1.9850    -0.4050 cd         1 O3V      -0.193000
     22 C9          -2.8140     2.7470    -0.2700 c6         1 O3V      -0.136700
     23 N1          -0.4770     2.3100    -0.1090 nb         1 O3V      -0.660000
     24 N11          2.5030     0.6310     0.0090 na         1 O3V       0.205700
     25 N12          1.8240     1.8100     0.0260 nc         1 O3V      -0.256400
     26 O14         -3.5670    -1.2750    -0.7500 o          1 O3V      -0.531100
     27 O23          2.2310    -1.6530    -0.1950 oh         1 O3V      -0.507100
     28 S28         -1.5020    -2.9240     0.9210 ss         1 O3V       0.272000
     29 H29         -4.6680     1.1730    -1.5030 hc         1 O3V       0.070700
     30 H30         -5.3260     0.4150    -0.0670 hc         1 O3V       0.070700
     31 H35          7.7580     0.7710     0.2990 ha         1 O3V       0.118000
     32 H36          6.5530     2.2680    -1.2600 ha         1 O3V       0.120500
     33 H37          4.0880     2.1870    -1.3980 ha         1 O3V       0.134500
     34 H39         -6.1690     2.8190     0.5450 hc         1 O3V       0.038367
     35 H38         -4.9910     4.1270     0.6640 hc         1 O3V       0.038367
     36 H40         -5.3900     3.4390    -0.9110 hc         1 O3V       0.038367
     37 H41         -3.1660     1.1270     2.0050 hc         1 O3V       0.038367
     38 H42         -3.6630     2.7770     2.3550 hc         1 O3V       0.038367
     39 H43         -4.8700     1.4980     2.2290 hc         1 O3V       0.038367
     40 H45         -0.1300    -2.3880    -2.3610 ha         1 O3V       0.141000
     41 H46         -0.3750    -4.9550    -1.8230 ha         1 O3V       0.138000
     42 H47         -1.3690    -5.3360     0.5760 h4         1 O3V       0.153000
     43 H33          4.0310    -0.8530     1.6300 ha         1 O3V       0.134500
     44 H32         -2.9900     3.0260    -1.3160 hc         1 O3V       0.070200
     45 H31         -2.5180     3.6610     0.2480 hc         1 O3V       0.070200
     46 H44          1.5350    -2.3010    -0.3870 ho         1 O3V       0.512000
     47 H34          6.4870    -0.7910     1.7350 ha         1 O3V       0.120500
@<TRIPOS>BOND
     1     1     2 ar  
     2     1    23 ar  
     3     1    25 2   
     4     2     3 ar  
     5     2     8 2   
     6     3     4 ar  
     7     3    21 1   
     8     4     5 1   
     9     4    18 ar  
    10     5     6 1   
    11     5    26 2   
    12     6     7 1   
    13     6    29 1   
    14     6    30 1   
    15     7    13 1   
    16     7    14 1   
    17     7    22 1   
    18     8    24 1   
    19     8    27 1   
    20     9    10 ar  
    21     9    20 ar  
    22     9    47 1   
    23    10    11 ar  
    24    10    31 1   
    25    11    12 ar  
    26    11    32 1   
    27    12    19 ar  
    28    12    33 1   
    29    13    34 1   
    30    13    35 1   
    31    13    36 1   
    32    14    37 1   
    33    14    38 1   
    34    14    39 1   
    35    15    16 1   
    36    15    21 2   
    37    15    40 1   
    38    16    17 2   
    39    16    41 1   
    40    17    28 1   
    41    17    42 1   
    42    18    22 1   
    43    18    23 ar  
    44    19    20 ar  
    45    19    24 1   
    46    20    43 1   
    47    21    28 1   
    48    22    44 1   
    49    22    45 1   
    50    24    25 1   
    51    27    46 1   
@<TRIPOS>SUBSTRUCTURE
     1 O3V         1 TEMP              0 ****  ****    0 ROOT
