@<TRIPOS>MOLECULE
O3W
   26    26     1     0     0
SMALL
No Charge or Current Charge


@<TRIPOS>ATOM
      1 C02         15.0970    18.4420     3.4350 c3         1 O3W       0.048600
      2 C03         16.1830    18.6730     2.3600 c3         1 O3W       0.114000
      3 C05         14.5960    19.6050     0.6390 c3         1 O3W       0.080300
      4 C06         16.4290    21.0490     1.5310 c          1 O3W       0.616700
      5 C07         17.8680    21.1780     1.9890 ca         1 O3W      -0.140600
      6 C08         18.8460    20.2150     1.6460 ca         1 O3W      -0.073500
      7 C09         20.1800    20.3740     2.0610 ca         1 O3W      -0.118000
      8 C10         20.5570    21.5030     2.8060 ca         1 O3W      -0.095000
      9 C11         19.6000    22.4780     3.1290 ca         1 O3W      -0.118000
     10 C12         18.2660    22.3210     2.7160 ca         1 O3W      -0.073500
     11 N04         15.8630    19.7580     1.3900 n          1 O3W      -0.400800
     12 O13         15.8010    22.0450     1.1910 o          1 O3W      -0.584100
     13 S01         14.7870    19.9130     4.5250 sh         1 O3W      -0.440800
     14 H1          14.1530    18.1590     2.9530 h1         1 O3W       0.063700
     15 H2          15.4060    17.6040     4.0740 h1         1 O3W       0.063700
     16 H3          16.3320    17.7400     1.8000 h1         1 O3W       0.064200
     17 H4          17.1190    18.8850     2.8890 h1         1 O3W       0.064200
     18 H5          14.3830    18.5420     0.4650 h1         1 O3W       0.042700
     19 H6          13.7700    20.0500     1.2090 h1         1 O3W       0.042700
     20 H7          14.6760    20.1090    -0.3330 h1         1 O3W       0.042700
     21 H8          18.5800    19.3480     1.0450 ha         1 O3W       0.123500
     22 H9          20.9230    19.6260     1.7960 ha         1 O3W       0.115500
     23 H10         21.5900    21.6250     3.1250 ha         1 O3W       0.113000
     24 H11         19.8920    23.3580     3.6980 ha         1 O3W       0.115500
     25 H12         17.5350    23.0870     2.9710 ha         1 O3W       0.123500
     26 H13         13.8290    19.3340     5.2910 hs         1 O3W       0.209800
@<TRIPOS>BOND
     1     1     2 1   
     2     1    13 1   
     3     1    14 1   
     4     1    15 1   
     5     2    11 1   
     6     2    16 1   
     7     2    17 1   
     8     3    11 1   
     9     3    18 1   
    10     3    19 1   
    11     3    20 1   
    12     4     5 1   
    13     4    11 1   
    14     4    12 2   
    15     5     6 ar  
    16     5    10 ar  
    17     6     7 ar  
    18     6    21 1   
    19     7     8 ar  
    20     7    22 1   
    21     8     9 ar  
    22     8    23 1   
    23     9    10 ar  
    24     9    24 1   
    25    10    25 1   
    26    13    26 1   
@<TRIPOS>SUBSTRUCTURE
     1 O3W         1 TEMP              0 ****  ****    0 ROOT
