@<TRIPOS>MOLECULE
O3W
   26    26     1     0     0
SMALL
abcg2


@<TRIPOS>ATOM
      1 C02         15.2060    18.5840     3.4680 c3         1 O3W       0.048600
      2 C03         16.1900    18.6770     2.3090 c3         1 O3W       0.114000
      3 C05         14.5780    19.6050     0.7000 c3         1 O3W       0.080300
      4 C06         16.4760    20.9330     1.3270 c          1 O3W       0.616700
      5 C07         17.8430    21.0560     1.9240 ca         1 O3W      -0.140600
      6 C08         18.8950    20.2500     1.4980 ca         1 O3W      -0.073500
      7 C09         20.1750    20.4550     1.9940 ca         1 O3W      -0.118000
      8 C10         20.4090    21.4580     2.9260 ca         1 O3W      -0.095000
      9 C11         19.3610    22.2660     3.3500 ca         1 O3W      -0.118000
     10 C12         18.0850    22.0750     2.8400 ca         1 O3W      -0.073500
     11 N04         15.8590    19.7320     1.3690 n          1 O3W      -0.400800
     12 O13         15.9710    21.9060     0.7820 o          1 O3W      -0.584100
     13 S01         15.1570    20.1790     4.3500 sh         1 O3W      -0.440800
     14 H1          14.2060    18.3280     3.1190 h1         1 O3W       0.063700
     15 H2          15.5400    17.7970     4.1430 h1         1 O3W       0.063700
     16 H3          16.1940    17.7190     1.7840 h1         1 O3W       0.064200
     17 H4          17.1930    18.8280     2.7000 h1         1 O3W       0.064200
     18 H5          14.3490    18.5480     0.5770 h1         1 O3W       0.042700
     19 H6          13.7680    20.0710     1.2660 h1         1 O3W       0.042700
     20 H7          14.6140    20.0600    -0.2870 h1         1 O3W       0.042700
     21 H8          18.7210    19.4650     0.7720 ha         1 O3W       0.123500
     22 H9          20.9890    19.8290     1.6520 ha         1 O3W       0.115500
     23 H10         21.4050    21.6110     3.3180 ha         1 O3W       0.113000
     24 H11         19.5370    23.0500     4.0740 ha         1 O3W       0.115500
     25 H12         17.2730    22.7130     3.1660 ha         1 O3W       0.123500
     26 H13         14.2670    19.8240     5.2820 hs         1 O3W       0.209800
@<TRIPOS>BOND
     1     1     2 1   
     2     1    13 1   
     3     1    14 1   
     4     1    15 1   
     5     2    11 1   
     6     2    16 1   
     7     2    17 1   
     8     3    11 1   
     9     3    18 1   
    10     3    19 1   
    11     3    20 1   
    12     4     5 1   
    13     4    11 1   
    14     4    12 2   
    15     5     6 ar  
    16     5    10 ar  
    17     6     7 ar  
    18     6    21 1   
    19     7     8 ar  
    20     7    22 1   
    21     8     9 ar  
    22     8    23 1   
    23     9    10 ar  
    24     9    24 1   
    25    10    25 1   
    26    13    26 1   
@<TRIPOS>SUBSTRUCTURE
     1 O3W         1 TEMP              0 ****  ****    0 ROOT
