@<TRIPOS>MOLECULE
O3Y
   50    54     1     0     0
SMALL
No Charge or Current Charge


@<TRIPOS>ATOM
      1 C2           0.6520    -1.6540    -0.3000 ca         1 O3Y       0.286000
      2 C3           0.4930    -0.2710    -0.3360 ca         1 O3Y      -0.299000
      3 C13          1.8220     0.2230    -0.3090 cc         1 O3Y       0.179000
      4 C15          4.0670    -0.8030    -0.1420 ca         1 O3Y       0.000800
      5 C16          4.7960     0.0420    -1.0070 ca         1 O3Y      -0.087000
      6 C17          6.2000     0.0880    -0.9390 ca         1 O3Y      -0.105000
      7 C18          6.8870    -0.7100    -0.0090 ca         1 O3Y      -0.100000
      8 C19          6.1700    -1.5560     0.8530 ca         1 O3Y      -0.105000
      9 C20          4.7660    -1.6050     0.7860 ca         1 O3Y      -0.087000
     10 C23         -0.8620     1.8460    -0.4130 cp         1 O3Y      -0.045000
     11 C24         -1.1020     2.5850     0.7740 ca         1 O3Y       0.147000
     12 C25         -1.1640     3.9890     0.7390 ca         1 O3Y      -0.100000
     13 C26         -0.9870     4.6740    -0.4750 ca         1 O3Y      -0.095000
     14 C27         -0.7440     3.9550    -1.6580 ca         1 O3Y      -0.112000
     15 C28         -0.6810     2.5520    -1.6260 ca         1 O3Y      -0.106000
     16 C10         -1.6460    -1.9250    -0.3870 ca         1 O3Y       0.431300
     17 C4          -0.7690     0.3580    -0.3890 cp         1 O3Y       0.146000
     18 C5          -1.8730    -0.5370    -0.4300 ca         1 O3Y      -0.250600
     19 C6          -3.2800    -0.0010    -0.5120 c          1 O3Y       0.596700
     20 C7          -4.3870    -1.0310    -0.7640 c6         1 O3Y      -0.171400
     21 C8          -4.1640    -2.3600     0.0030 c6         1 O3Y      -0.036000
     22 C9          -2.7880    -2.9410    -0.4230 c6         1 O3Y      -0.136700
     23 N1          -0.4100    -2.4710    -0.3260 nb         1 O3Y      -0.659000
     24 N11          2.6710    -0.8570    -0.2100 na         1 O3Y       0.207700
     25 N12          1.9970    -2.0680    -0.2310 nc         1 O3Y      -0.255400
     26 O14         -3.5770     1.1750    -0.3520 o          1 O3Y      -0.531100
     27 O30          2.1600     1.5060    -0.0580 oh         1 O3Y      -0.505100
     28 Cl29        -1.3060     1.7680     2.3220 cl         1 O3Y      -0.185000
     29 H35          4.2770     0.6610    -1.7350 ha         1 O3Y       0.133500
     30 H36          6.7550     0.7430    -1.6080 ha         1 O3Y       0.120000
     31 H37          7.9730    -0.6730     0.0430 ha         1 O3Y       0.118000
     32 H38          6.7020    -2.1750     1.5730 ha         1 O3Y       0.120000
     33 H39          4.2220    -2.2630     1.4600 ha         1 O3Y       0.133500
     34 H42         -5.1660    -1.6830     1.8520 hc         1 O3Y       0.038700
     35 H40         -4.0840    -3.0590     2.0980 hc         1 O3Y       0.038700
     36 H41         -3.4160    -1.4410     1.8800 hc         1 O3Y       0.038700
     37 H43         -6.2820    -2.9830    -0.0490 hc         1 O3Y       0.038700
     38 H45         -5.3360    -3.5790    -1.4180 hc         1 O3Y       0.038700
     39 H44         -5.1530    -4.3270     0.1740 hc         1 O3Y       0.038700
     40 H46         -1.3480     4.5440     1.6550 ha         1 O3Y       0.133000
     41 H47         -1.0370     5.7610    -0.4990 ha         1 O3Y       0.122000
     42 H48         -0.6060     4.4860    -2.5980 ha         1 O3Y       0.122000
     43 H49         -0.4920     2.0020    -2.5460 ha         1 O3Y       0.126000
     44 H31         -5.3710    -0.5820    -0.5700 hc         1 O3Y       0.070200
     45 H32         -4.3300    -1.2730    -1.8340 hc         1 O3Y       0.070200
     46 H34         -2.8540    -3.3330    -1.4470 hc         1 O3Y       0.069700
     47 H33         -2.5400    -3.8050     0.2100 hc         1 O3Y       0.069700
     48 H50          1.3400     2.0340    -0.1420 ho         1 O3Y       0.507000
     49 C21         -4.2090    -2.1200     1.5440 c3         1 O3Y      -0.085600
     50 C22         -5.2980    -3.3700    -0.3420 c3         1 O3Y      -0.085600
@<TRIPOS>BOND
     1     1     2 ar  
     2     1    23 ar  
     3     1    25 2   
     4     2     3 2   
     5     2    17 ar  
     6     3    24 1   
     7     3    27 1   
     8     4     5 ar  
     9     4     9 ar  
    10     4    24 1   
    11     5     6 ar  
    12     5    29 1   
    13     6     7 ar  
    14     6    30 1   
    15     7     8 ar  
    16     7    31 1   
    17     8     9 ar  
    18     8    32 1   
    19     9    33 1   
    20    10    11 ar  
    21    10    15 ar  
    22    10    17 1   
    23    11    12 ar  
    24    11    28 1   
    25    12    13 ar  
    26    12    40 1   
    27    13    14 ar  
    28    13    41 1   
    29    14    15 ar  
    30    14    42 1   
    31    15    43 1   
    32    16    18 ar  
    33    16    22 1   
    34    16    23 ar  
    35    17    18 ar  
    36    18    19 1   
    37    19    20 1   
    38    19    26 2   
    39    20    21 1   
    40    20    44 1   
    41    20    45 1   
    42    21    22 1   
    43    21    49 1   
    44    21    50 1   
    45    22    46 1   
    46    22    47 1   
    47    24    25 1   
    48    27    48 1   
    49    34    49 1   
    50    35    49 1   
    51    36    49 1   
    52    37    50 1   
    53    38    50 1   
    54    39    50 1   
@<TRIPOS>SUBSTRUCTURE
     1 O3Y         1 TEMP              0 ****  ****    0 ROOT
