@<TRIPOS>MOLECULE
O3Y
   50    54     1     0     0
SMALL
abcg2


@<TRIPOS>ATOM
      1 C2           0.6080    -1.5880    -0.3930 ca         1 O3Y       0.286000
      2 C3           0.4370    -0.1780    -0.4190 ca         1 O3Y      -0.299000
      3 C13          1.7430     0.3170    -0.3300 cc         1 O3Y       0.179000
      4 C15          3.9530    -0.7560    -0.1530 ca         1 O3Y       0.000800
      5 C16          4.7340    -0.0100    -1.0250 ca         1 O3Y      -0.087000
      6 C17          6.1140    -0.0320    -0.8840 ca         1 O3Y      -0.105000
      7 C18          6.7050    -0.8010     0.1090 ca         1 O3Y      -0.100000
      8 C19          5.9130    -1.5530     0.9670 ca         1 O3Y      -0.105000
      9 C20          4.5320    -1.5310     0.8430 ca         1 O3Y      -0.087000
     10 C23         -0.9450     1.8530    -0.4590 cp         1 O3Y      -0.045000
     11 C24         -1.2930     2.5470     0.6970 ca         1 O3Y       0.147000
     12 C25         -1.2920     3.9300     0.7350 ca         1 O3Y      -0.100000
     13 C26         -0.9330     4.6450    -0.4000 ca         1 O3Y      -0.095000
     14 C27         -0.5710     3.9750    -1.5580 ca         1 O3Y      -0.112000
     15 C28         -0.5710     2.5870    -1.5820 ca         1 O3Y      -0.106000
     16 C10         -1.6180    -1.9340    -0.5180 ca         1 O3Y       0.431300
     17 C4          -0.8430     0.3770    -0.4820 cp         1 O3Y       0.146000
     18 C5          -1.8960    -0.5190    -0.5500 ca         1 O3Y      -0.250600
     19 C6          -3.2920    -0.0380    -0.6360 c          1 O3Y       0.596700
     20 C7          -4.3970    -1.0630    -0.6390 c6         1 O3Y      -0.171400
     21 C8          -4.0430    -2.3770     0.0540 c6         1 O3Y      -0.036000
     22 C9          -2.7620    -2.9020    -0.5910 c6         1 O3Y      -0.136700
     23 N1          -0.4240    -2.4540    -0.4380 nb         1 O3Y      -0.659000
     24 N11          2.5420    -0.7530    -0.2780 na         1 O3Y       0.207700
     25 N12          1.8750    -1.9370    -0.3040 nc         1 O3Y      -0.255400
     26 O14         -3.5470     1.1460    -0.7310 o          1 O3Y      -0.531100
     27 O30          2.2450     1.5350    -0.2670 oh         1 O3Y      -0.505100
     28 CL29        -1.7340     1.6650     2.1180 cl         1 O3Y      -0.185000
     29 H35          4.2790     0.5690    -1.8180 ha         1 O3Y       0.133500
     30 H36          6.7270     0.5470    -1.5610 ha         1 O3Y       0.120000
     31 H37          7.7820    -0.8170     0.2130 ha         1 O3Y       0.118000
     32 H38          6.3700    -2.1530     1.7430 ha         1 O3Y       0.120000
     33 H39          3.9090    -2.1070     1.5130 ha         1 O3Y       0.133500
     34 H42         -4.7680    -1.8020     2.0180 hc         1 O3Y       0.038700
     35 H40         -3.5550    -3.0810     2.0500 hc         1 O3Y       0.038700
     36 H41         -3.0700    -1.4120     1.7730 hc         1 O3Y       0.038700
     37 H43         -6.1000    -3.0350     0.2850 hc         1 O3Y       0.038700
     38 H45         -5.3450    -3.5740    -1.2160 hc         1 O3Y       0.038700
     39 H44         -4.9170    -4.3430     0.3130 hc         1 O3Y       0.038700
     40 H46         -1.5670     4.4480     1.6440 ha         1 O3Y       0.133000
     41 H47         -0.9310     5.7260    -0.3690 ha         1 O3Y       0.122000
     42 H48         -0.2830     4.5260    -2.4430 ha         1 O3Y       0.122000
     43 H49         -0.2890     2.0620    -2.4870 ha         1 O3Y       0.126000
     44 H31         -5.2900    -0.6080    -0.2020 hc         1 O3Y       0.070200
     45 H32         -4.6350    -1.2590    -1.6920 hc         1 O3Y       0.070200
     46 H34         -2.9580    -3.1200    -1.6480 hc         1 O3Y       0.069700
     47 H33         -2.4510    -3.8420    -0.1320 hc         1 O3Y       0.069700
     48 H50          1.5500     2.1980    -0.3860 ho         1 O3Y       0.507000
     49 C21         -3.8430    -2.1520     1.5550 c3         1 O3Y      -0.085600
     50 C22         -5.1660    -3.3890    -0.1550 c3         1 O3Y      -0.085600
@<TRIPOS>BOND
     1     1     2 ar  
     2     1    23 ar  
     3     1    25 2   
     4     2     3 2   
     5     2    17 ar  
     6     3    24 1   
     7     3    27 1   
     8     4     5 ar  
     9     4     9 ar  
    10     4    24 1   
    11     5     6 ar  
    12     5    29 1   
    13     6     7 ar  
    14     6    30 1   
    15     7     8 ar  
    16     7    31 1   
    17     8     9 ar  
    18     8    32 1   
    19     9    33 1   
    20    10    11 ar  
    21    10    15 ar  
    22    10    17 1   
    23    11    12 ar  
    24    11    28 1   
    25    12    13 ar  
    26    12    40 1   
    27    13    14 ar  
    28    13    41 1   
    29    14    15 ar  
    30    14    42 1   
    31    15    43 1   
    32    16    18 ar  
    33    16    22 1   
    34    16    23 ar  
    35    17    18 ar  
    36    18    19 1   
    37    19    20 1   
    38    19    26 2   
    39    20    21 1   
    40    20    44 1   
    41    20    45 1   
    42    21    22 1   
    43    21    49 1   
    44    21    50 1   
    45    22    46 1   
    46    22    47 1   
    47    24    25 1   
    48    27    48 1   
    49    34    49 1   
    50    35    49 1   
    51    36    49 1   
    52    37    50 1   
    53    38    50 1   
    54    39    50 1   
@<TRIPOS>SUBSTRUCTURE
     1 O3Y         1 TEMP              0 ****  ****    0 ROOT
