@<TRIPOS>MOLECULE
O40
   57    59     1     0     0
SMALL
No Charge or Current Charge


@<TRIPOS>ATOM
      1 C1          24.2360   -14.7020    18.5980 ca         1 O40      -0.212000
      2 C2          23.6100   -15.9320    18.9420 ca         1 O40       0.201100
      3 C3          24.3380   -16.9320    19.6370 ca         1 O40      -0.123300
      4 C4          25.6760   -16.6500    19.9540 ca         1 O40       0.113100
      5 C5          26.2640   -15.4730    19.6200 ca         1 O40      -0.264900
      6 C6          25.5820   -14.4600    18.9380 ca         1 O40       0.008000
      7 O7          26.5540   -17.4690    20.6120 os         1 O40      -0.119100
      8 N8          27.8250   -16.7370    20.7030 nc         1 O40      -0.239700
      9 C9          27.6190   -15.5550    20.1040 cd         1 O40       0.293900
     10 C10         13.8370   -15.2410    18.6770 ca         1 O40      -0.168000
     11 O11         22.2970   -16.1950    18.6060 os         1 O40      -0.355100
     12 C12         23.7140   -18.2720    20.0310 c3         1 O40      -0.011100
     13 C13         12.4590   -14.9670    18.6130 ca         1 O40      -0.070000
     14 C14         28.7080   -14.5020    19.9910 c3         1 O40       0.294700
     15 C15         21.4780   -15.2650    17.8800 c3         1 O40       0.166600
     16 C16         11.5260   -15.9960    18.3490 ca         1 O40      -0.138600
     17 C17         24.0290   -19.4070    19.0300 c3         1 O40      -0.071400
     18 C18         12.0140   -17.3070    18.1500 ca         1 O40      -0.070000
     19 C19         13.3920   -17.5760    18.2150 ca         1 O40      -0.168000
     20 C20         23.4360   -19.1860    17.6230 c3         1 O40      -0.087100
     21 N21         18.0570   -16.9230    18.7130 n          1 O40      -0.446800
     22 C22         18.0590   -18.3830    18.4540 c3         1 O40       0.096300
     23 C23         16.8570   -16.1730    18.7490 c          1 O40       0.652100
     24 N24         15.6950   -16.9070    18.5260 ns         1 O40      -0.152000
     25 C26         20.1100   -15.9320    17.6500 c3         1 O40      -0.105400
     26 C29         19.3680   -16.2770    18.9570 c3         1 O40       0.121000
     27 O30          9.6580   -14.5500    18.4590 o          1 O40      -0.724000
     28 C32         10.0360   -15.7000    18.2800 c          1 O40       0.706600
     29 O33         16.8720   -14.9660    18.9600 o          1 O40      -0.638100
     30 O34          9.2660   -16.6210    18.0490 o          1 O40      -0.724000
     31 F38         29.8790   -14.8900    20.5540 f          1 O40      -0.100000
     32 F39         28.3480   -13.3470    20.5960 f          1 O40      -0.100000
     33 F40         28.9770   -14.2010    18.7000 f          1 O40      -0.100000
     34 C42         14.3170   -16.5510    18.4770 ca         1 O40      -0.063000
     35 H1          23.6950   -13.9250    18.0670 ha         1 O40       0.130000
     36 H6          26.0680   -13.5210    18.6780 ha         1 O40       0.132000
     37 H10         14.5110   -14.4160    18.8830 ha         1 O40       0.098500
     38 H12         24.0830   -18.5710    21.0200 hc         1 O40       0.057700
     39 H12A        22.6260   -18.1830    20.1440 hc         1 O40       0.057700
     40 H13         12.1170   -13.9460    18.7720 ha         1 O40       0.129500
     41 H15         21.3460   -14.3340    18.4470 h1         1 O40       0.045700
     42 H15A        21.9300   -15.0250    16.9090 h1         1 O40       0.045700
     43 H17         25.1160   -19.5290    18.9490 hc         1 O40       0.039700
     44 H17A        23.6360   -20.3490    19.4320 hc         1 O40       0.039700
     45 H18         11.3260   -18.1240    17.9450 ha         1 O40       0.129500
     46 H19         13.7410   -18.5950    18.0580 ha         1 O40       0.098500
     47 H20         23.6490   -20.0480    16.9800 hc         1 O40       0.032700
     48 H20A        22.3480   -19.0570    17.6750 hc         1 O40       0.032700
     49 H20B        23.8690   -18.2960    17.1510 hc         1 O40       0.032700
     50 H22         19.0860   -18.7700    18.4500 h1         1 O40       0.035700
     51 H22A        17.4910   -18.9010    19.2370 h1         1 O40       0.035700
     52 H22B        17.6040   -18.5880    17.4760 h1         1 O40       0.035700
     53 HN24        15.8600   -17.8920    18.3670 hn         1 O40       0.135000
     54 H26         19.4850   -15.2580    17.0520 hc         1 O40       0.066200
     55 H26A        20.2530   -16.8440    17.0570 hc         1 O40       0.066200
     56 H29         19.2350   -15.3650    19.5530 h1         1 O40       0.058700
     57 H29A        19.9860   -16.9590    19.5560 h1         1 O40       0.058700
@<TRIPOS>BOND
     1     1     2 ar  
     2     1     6 ar  
     3     1    35 1   
     4     2     3 ar  
     5     2    11 1   
     6     3     4 ar  
     7     3    12 1   
     8     4     5 ar  
     9     4     7 1   
    10     5     6 ar  
    11     5     9 1   
    12     6    36 1   
    13     7     8 1   
    14     8     9 2   
    15     9    14 1   
    16    10    13 ar  
    17    10    34 ar  
    18    10    37 1   
    19    11    15 1   
    20    12    17 1   
    21    12    38 1   
    22    12    39 1   
    23    13    16 ar  
    24    13    40 1   
    25    14    31 1   
    26    14    32 1   
    27    14    33 1   
    28    15    25 1   
    29    15    41 1   
    30    15    42 1   
    31    16    18 ar  
    32    16    28 1   
    33    17    20 1   
    34    17    43 1   
    35    17    44 1   
    36    18    19 ar  
    37    18    45 1   
    38    19    34 ar  
    39    19    46 1   
    40    20    47 1   
    41    20    48 1   
    42    20    49 1   
    43    21    22 1   
    44    21    23 1   
    45    21    26 1   
    46    22    50 1   
    47    22    51 1   
    48    22    52 1   
    49    23    24 1   
    50    23    29 2   
    51    24    34 1   
    52    24    53 1   
    53    25    26 1   
    54    25    54 1   
    55    25    55 1   
    56    26    56 1   
    57    26    57 1   
    58    27    28 1   
    59    28    30 1   
@<TRIPOS>SUBSTRUCTURE
     1 O40         1 TEMP              0 ****  ****    0 ROOT
