@<TRIPOS>MOLECULE
O40
   57    59     1     0     0
SMALL
abcg2


@<TRIPOS>ATOM
      1 C1          23.8490   -14.7870    18.4490 ca         1 O40      -0.212000
      2 C2          23.4220   -16.1290    18.6050 ca         1 O40       0.201100
      3 C3          24.1370   -17.0540    19.3810 ca         1 O40      -0.123300
      4 C4          25.2660   -16.5280    19.9890 ca         1 O40       0.113100
      5 C5          25.6980   -15.2040    19.8800 ca         1 O40      -0.264900
      6 C6          24.9780   -14.3120    19.0820 ca         1 O40       0.008000
      7 O7          26.1130   -17.2100    20.8130 os         1 O40      -0.119100
      8 N8          27.1020   -16.3300    21.2650 nc         1 O40      -0.239700
      9 C9          26.8510   -15.1750    20.7180 cd         1 O40       0.293900
     10 C10         14.3140   -15.2290    18.1470 ca         1 O40      -0.168000
     11 O11         22.3030   -16.6030    18.0170 os         1 O40      -0.355100
     12 C12         23.7300   -18.4910    19.5540 c3         1 O40      -0.011100
     13 C13         13.0390   -14.6860    18.2420 ca         1 O40      -0.070000
     14 C14         27.7230   -13.9970    21.0310 c3         1 O40       0.294700
     15 C15         21.3670   -15.6950    17.4100 c3         1 O40       0.166600
     16 C16         11.9690   -15.4020    18.7780 ca         1 O40      -0.138600
     17 C17         24.4890   -19.4570    18.6270 c3         1 O40      -0.071400
     18 C18         12.2160   -16.7050    19.2150 ca         1 O40      -0.070000
     19 C19         13.4830   -17.2620    19.1340 ca         1 O40      -0.168000
     20 C20         24.2140   -19.2320    17.1430 c3         1 O40      -0.087100
     21 N21         18.1060   -17.3900    18.4660 n          1 O40      -0.446800
     22 C22         17.9780   -18.8240    18.2380 c3         1 O40       0.096300
     23 C23         17.0390   -16.5460    18.5430 c          1 O40       0.652100
     24 N24         15.8010   -17.1610    18.5200 ns         1 O40      -0.152000
     25 C26         20.0550   -16.4290    17.2420 c3         1 O40      -0.105400
     26 C29         19.4430   -16.8220    18.5880 c3         1 O40       0.121000
     27 O30         10.4440   -13.6070    18.4550 o          1 O40      -0.724000
     28 C32         10.5800   -14.7840    18.8800 c          1 O40       0.706600
     29 O33         17.1700   -15.3220    18.6340 o          1 O40      -0.638100
     30 O34          9.6700   -15.4950    19.3800 o          1 O40      -0.724000
     31 F38         28.7680   -14.3210    21.8030 f          1 O40      -0.100000
     32 F39         27.0230   -13.0390    21.6750 f          1 O40      -0.100000
     33 F40         28.2040   -13.4370    19.9020 f          1 O40      -0.100000
     34 C42         14.5510   -16.5290    18.6040 ca         1 O40      -0.063000
     35 H1          23.2810   -14.1200    17.8190 ha         1 O40       0.130000
     36 H6          25.2880   -13.2830    18.9590 ha         1 O40       0.132000
     37 H10         15.1220   -14.6530    17.7270 ha         1 O40       0.098500
     38 H12         23.9140   -18.7820    20.5910 hc         1 O40       0.057700
     39 H12A        22.6590   -18.5820    19.3750 hc         1 O40       0.057700
     40 H13         12.8630   -13.6790    17.8880 ha         1 O40       0.129500
     41 H15         21.2330   -14.8270    18.0600 h1         1 O40       0.045700
     42 H15A        21.7620   -15.3570    16.4500 h1         1 O40       0.045700
     43 H17         25.5620   -19.3680    18.8220 hc         1 O40       0.039700
     44 H17A        24.2060   -20.4770    18.9020 hc         1 O40       0.039700
     45 H18         11.4010   -17.2810    19.6310 ha         1 O40       0.129500
     46 H19         13.6580   -18.2730    19.4880 ha         1 O40       0.098500
     47 H20         24.7770   -19.9410    16.5330 hc         1 O40       0.032700
     48 H20A        23.1530   -19.3590    16.9180 hc         1 O40       0.032700
     49 H20B        24.5010   -18.2240    16.8340 hc         1 O40       0.032700
     50 H22         18.9640   -19.2290    18.0260 h1         1 O40       0.035700
     51 H22A        17.5790   -19.3450    19.1150 h1         1 O40       0.035700
     52 H22B        17.3380   -19.0340    17.3790 h1         1 O40       0.035700
     53 HN24        15.7770   -18.1560    18.6770 hn         1 O40       0.135000
     54 H26         19.3660   -15.7650    16.7160 hc         1 O40       0.066200
     55 H26A        20.2000   -17.3140    16.6170 hc         1 O40       0.066200
     56 H29         19.3810   -15.9420    19.2270 h1         1 O40       0.058700
     57 H29A        20.0740   -17.5550    19.0900 h1         1 O40       0.058700
@<TRIPOS>BOND
     1     1     2 ar  
     2     1     6 ar  
     3     1    35 1   
     4     2     3 ar  
     5     2    11 1   
     6     3     4 ar  
     7     3    12 1   
     8     4     5 ar  
     9     4     7 1   
    10     5     6 ar  
    11     5     9 1   
    12     6    36 1   
    13     7     8 1   
    14     8     9 2   
    15     9    14 1   
    16    10    13 ar  
    17    10    34 ar  
    18    10    37 1   
    19    11    15 1   
    20    12    17 1   
    21    12    38 1   
    22    12    39 1   
    23    13    16 ar  
    24    13    40 1   
    25    14    31 1   
    26    14    32 1   
    27    14    33 1   
    28    15    25 1   
    29    15    41 1   
    30    15    42 1   
    31    16    18 ar  
    32    16    28 1   
    33    17    20 1   
    34    17    43 1   
    35    17    44 1   
    36    18    19 ar  
    37    18    45 1   
    38    19    34 ar  
    39    19    46 1   
    40    20    47 1   
    41    20    48 1   
    42    20    49 1   
    43    21    22 1   
    44    21    23 1   
    45    21    26 1   
    46    22    50 1   
    47    22    51 1   
    48    22    52 1   
    49    23    24 1   
    50    23    29 2   
    51    24    34 1   
    52    24    53 1   
    53    25    26 1   
    54    25    54 1   
    55    25    55 1   
    56    26    56 1   
    57    26    57 1   
    58    27    28 1   
    59    28    30 1   
@<TRIPOS>SUBSTRUCTURE
     1 O40         1 TEMP              0 ****  ****    0 ROOT
