@<TRIPOS>MOLECULE
O41
   40    42     1     0     0
SMALL
bcc


@<TRIPOS>ATOM
      1 C10         -3.0260     1.3090    -0.5970 c6         1 O41       0.209300
      2 C15          4.0430     1.1030     0.0100 cc         1 O41      -0.347600
      3 C20          7.0640    -0.9800    -1.1210 cx         1 O41      -0.104400
      4 C21          7.2670    -0.9440     0.3530 cx         1 O41      -0.104400
      5 C01         -3.8570    -2.0320    -1.1060 c3         1 O41      -0.267300
      6 C06         -3.1820     0.1160     1.5420 c6         1 O41       0.209300
      7 C07         -1.7310    -0.3350     1.4260 c6         1 O41      -0.123400
      8 C08         -0.9240     0.6620     0.6030 c6         1 O41       0.115700
      9 C09         -1.5760     0.8740    -0.7620 c6         1 O41      -0.123400
     10 C14          2.8180     0.4250     0.1880 cc         1 O41       0.288800
     11 C16          4.9460     0.0960    -0.1020 cd         1 O41       0.323000
     12 C19          6.3910     0.0940    -0.3030 cx         1 O41      -0.197000
     13 N05         -3.7910     0.3900     0.2430 n3         1 O41      -0.758500
     14 N11          0.4500     0.2180     0.4830 ns         1 O41      -0.557900
     15 N18          2.9780    -0.8670     0.1840 nd         1 O41      -0.366300
     16 O03         -5.4790    -0.0270    -1.5480 o          1 O41      -0.603800
     17 O04         -5.6380    -1.2400     0.6410 o          1 O41      -0.603800
     18 O13          1.3950     2.2790     0.3900 o          1 O41      -0.585100
     19 O17          4.3050    -1.0760     0.0040 os         1 O41      -0.107100
     20 S02         -4.8210    -0.6930    -0.4330 s6         1 O41       1.246900
     21 H1          -3.0600     2.2890    -0.1120 h1         1 O41       0.074950
     22 H2          -3.5100     1.4260    -1.5630 h1         1 O41       0.074950
     23 H4           7.8740    -0.6590    -1.7620 hc         1 O41       0.082450
     24 H5           6.4470    -1.7650    -1.5370 hc         1 O41       0.082450
     25 H6           6.7880    -1.7040     0.9570 hc         1 O41       0.082450
     26 H7           8.2180    -0.6000     0.7370 hc         1 O41       0.082450
     27 H8          -4.5440    -2.7420    -1.5650 h1         1 O41       0.098700
     28 H9          -3.1750    -1.6470    -1.8600 h1         1 O41       0.098700
     29 H10         -3.3020    -2.5220    -0.3100 h1         1 O41       0.098700
     30 H11         -3.7700    -0.6210     2.0830 h1         1 O41       0.074950
     31 H12         -3.2320     1.0410     2.1230 h1         1 O41       0.074950
     32 H13         -1.3100    -0.4260     2.4290 hc         1 O41       0.057450
     33 H14         -1.6830    -1.3270     0.9660 hc         1 O41       0.057450
     34 H15         -0.9140     1.6170     1.1350 h1         1 O41       0.083700
     35 H16         -1.5150    -0.0490    -1.3460 hc         1 O41       0.057450
     36 H17         -1.0390     1.6430    -1.3200 hc         1 O41       0.057450
     37 H18          6.8000     1.0930    -0.3840 hc         1 O41       0.100700
     38 H19          0.6210    -0.7710     0.3810 hn         1 O41       0.333500
     39 C12          1.4810     1.0610     0.3610 c          1 O41       0.593600
     40 H3           4.2220     2.1630    -0.0300 ha         1 O41       0.190000
@<TRIPOS>BOND
     1     1     9 1   
     2     1    13 1   
     3     1    21 1   
     4     1    22 1   
     5     2    10 1   
     6     2    11 2   
     7     2    40 1   
     8     3     4 1   
     9     3    12 1   
    10     3    23 1   
    11     3    24 1   
    12     4    12 1   
    13     4    25 1   
    14     4    26 1   
    15     5    20 1   
    16     5    27 1   
    17     5    28 1   
    18     5    29 1   
    19     6     7 1   
    20     6    13 1   
    21     6    30 1   
    22     6    31 1   
    23     7     8 1   
    24     7    32 1   
    25     7    33 1   
    26     8     9 1   
    27     8    14 1   
    28     8    34 1   
    29     9    35 1   
    30     9    36 1   
    31    10    15 2   
    32    10    39 1   
    33    11    12 1   
    34    11    19 1   
    35    12    37 1   
    36    13    20 1   
    37    14    38 1   
    38    14    39 1   
    39    15    19 1   
    40    16    20 2   
    41    17    20 2   
    42    18    39 2   
@<TRIPOS>SUBSTRUCTURE
     1 O41         1 TEMP              0 ****  ****    0 ROOT
