@<TRIPOS>MOLECULE
O41
   40    42     1     0     0
SMALL
No Charge or Current Charge


@<TRIPOS>ATOM
      1 C10         -3.1010     1.5080    -0.4990 c6         1 O41       0.209300
      2 C15          4.0120     0.9500    -0.0360 cc         1 O41      -0.199000
      3 C20          7.1370    -0.9260    -1.2250 cx         1 O41      -0.104400
      4 C21          7.3560    -0.8990     0.2700 cx         1 O41      -0.104400
      5 C01         -3.7010    -2.1810    -0.7420 c3         1 O41      -0.378100
      6 C06         -3.3290     0.0690     1.5080 c6         1 O41       0.209300
      7 C07         -1.8360    -0.3460     1.4060 c6         1 O41      -0.123400
      8 C08         -0.9930     0.7300     0.6820 c6         1 O41       0.115700
      9 C09         -1.6370     1.0530    -0.6880 c6         1 O41      -0.123400
     10 C14          2.7770     0.2970     0.1570 cc         1 O41       0.223500
     11 C16          4.9250    -0.0400    -0.1520 cd         1 O41       0.213300
     12 C19          6.3920     0.0760    -0.3690 cx         1 O41      -0.197000
     13 N05         -3.8990     0.4650     0.1940 n3         1 O41      -0.758500
     14 N11          0.3860     0.2610     0.5080 ns         1 O41      -0.490900
     15 N18          2.8930    -1.0300     0.1630 nd         1 O41      -0.366300
     16 O03         -4.7640    -0.2220    -2.1270 o          1 O41      -0.533000
     17 O04         -5.9940    -0.9950    -0.0560 o          1 O41      -0.533000
     18 O13          1.4130     2.2860     0.3230 o          1 O41      -0.585100
     19 O17          4.3040    -1.2570    -0.0400 os         1 O41      -0.062700
     20 S02         -4.7310    -0.7230    -0.7490 s6         1 O41       1.216100
     21 H1          -3.0970     2.4270     0.1070 h1         1 O41       0.074950
     22 H2          -3.5360     1.7910    -1.4680 h1         1 O41       0.074950
     23 H4           7.9370    -0.5550    -1.8610 hc         1 O41       0.082450
     24 H5           6.5810    -1.7640    -1.6400 hc         1 O41       0.082450
     25 H6           6.9470    -1.7200     0.8560 hc         1 O41       0.082450
     26 H7           8.3040    -0.5110     0.6370 hc         1 O41       0.082450
     27 H8          -4.1930    -2.9260    -1.3760 h1         1 O41       0.098700
     28 H9          -2.7250    -1.9040    -1.1510 h1         1 O41       0.098700
     29 H10         -3.6260    -2.5380     0.2900 h1         1 O41       0.098700
     30 H11         -3.9130    -0.7400     1.9720 h1         1 O41       0.074950
     31 H12         -3.3930     0.9240     2.1990 h1         1 O41       0.074950
     32 H13         -1.4380    -0.5060     2.4170 hc         1 O41       0.057450
     33 H14         -1.7380    -1.3080     0.8900 hc         1 O41       0.057450
     34 H15         -0.9790     1.6430     1.2970 h1         1 O41       0.083700
     35 H16         -1.5950     0.1790    -1.3500 hc         1 O41       0.057450
     36 H17         -1.0720     1.8510    -1.1870 hc         1 O41       0.057450
     37 H18          6.7230     1.1100    -0.4360 hc         1 O41       0.100700
     38 H19          0.5580    -0.7390     0.5020 hn         1 O41       0.333500
     39 C12          1.4980     1.0620     0.3310 c          1 O41       0.526600
     40 H3           4.1760     2.0210    -0.0780 ha         1 O41       0.172000
@<TRIPOS>BOND
     1     1     9 1   
     2     1    13 1   
     3     1    21 1   
     4     1    22 1   
     5     2    10 1   
     6     2    11 2   
     7     2    40 1   
     8     3     4 1   
     9     3    12 1   
    10     3    23 1   
    11     3    24 1   
    12     4    12 1   
    13     4    25 1   
    14     4    26 1   
    15     5    20 1   
    16     5    27 1   
    17     5    28 1   
    18     5    29 1   
    19     6     7 1   
    20     6    13 1   
    21     6    30 1   
    22     6    31 1   
    23     7     8 1   
    24     7    32 1   
    25     7    33 1   
    26     8     9 1   
    27     8    14 1   
    28     8    34 1   
    29     9    35 1   
    30     9    36 1   
    31    10    15 2   
    32    10    39 1   
    33    11    12 1   
    34    11    19 1   
    35    12    37 1   
    36    13    20 1   
    37    14    38 1   
    38    14    39 1   
    39    15    19 1   
    40    16    20 2   
    41    17    20 2   
    42    18    39 2   
@<TRIPOS>SUBSTRUCTURE
     1 O41         1 TEMP              0 ****  ****    0 ROOT
