@<TRIPOS>MOLECULE
O42
   45    47     1     0     0
SMALL
bcc


@<TRIPOS>ATOM
      1 OAE         -6.6390     1.3590    17.4870 o          1 O42      -0.612800
      2 SBA         -5.3920     0.9930    16.8310 sy         1 O42       1.266200
      3 OAD         -4.2350     0.6870    17.6590 o          1 O42      -0.612800
      4 NAA         -5.5590    -0.2810    15.7950 n8         1 O42      -0.892700
      5 CAW         -4.9700     2.2940    15.7040 ca         1 O42      -0.255500
      6 CAL         -3.6820     2.3370    15.1890 ca         1 O42      -0.033500
      7 CAJ         -3.3360     3.3660    14.3310 ca         1 O42      -0.118500
      8 CAM         -5.9160     3.2490    15.3660 ca         1 O42      -0.033500
      9 CAK         -5.5660     4.2610    14.4850 ca         1 O42      -0.118500
     10 CAV         -4.2740     4.3330    13.9790 ca         1 O42      -0.090600
     11 CAS         -3.9470     5.3890    12.9670 c          1 O42       0.676700
     12 OAB         -4.6190     5.4560    11.9480 o          1 O42      -0.586100
     13 NAY         -2.8890     6.1860    13.2180 n          1 O42      -0.469800
     14 CAP         -2.2930     6.3980    14.5280 c6         1 O42       0.068500
     15 CAR         -2.5980     7.8110    15.0080 c6         1 O42       0.070500
     16 CAO         -2.4650     7.1730    12.2400 c6         1 O42       0.068500
     17 CAQ         -2.7640     8.5870    12.7230 c6         1 O42       0.070500
     18 NAZ         -2.1680     8.7970    14.0330 n          1 O42      -0.473800
     19 CAT         -1.0810     9.5650    14.2800 c          1 O42       0.683700
     20 OAC         -0.4010     9.4440    15.2890 o          1 O42      -0.589100
     21 CAX         -0.7410    10.6350    13.2910 ca         1 O42      -0.147600
     22 CAU         -1.6830    11.5780    12.8880 ca         1 O42      -0.093000
     23 CAN          0.5770    10.7530    12.8600 ca         1 O42      -0.093000
     24 CAH          0.9420    11.7850    12.0080 ca         1 O42      -0.135000
     25 CAG         -0.0010    12.7240    11.6070 ca         1 O42      -0.110000
     26 CAI         -1.3110    12.6230    12.0540 ca         1 O42      -0.135000
     27 H1          -5.4730    -1.1690    16.2820 hn         1 O42       0.419800
     28 H2          -6.4280    -0.2500    15.2730 hn         1 O42       0.419800
     29 H3          -2.9480     1.5860    15.4500 ha         1 O42       0.159000
     30 H4          -2.3300     3.4090    13.9340 ha         1 O42       0.147500
     31 H5          -6.9170     3.2130    15.7740 ha         1 O42       0.159000
     32 H6          -6.3040     5.0020    14.2070 ha         1 O42       0.147500
     33 H7          -2.6770     5.6860    15.2530 h1         1 O42       0.069450
     34 H8          -1.2120     6.2520    14.4570 h1         1 O42       0.069450
     35 H9          -2.1120     7.9950    15.9610 h1         1 O42       0.069450
     36 H10         -3.6770     7.9190    15.1530 h1         1 O42       0.069450
     37 H11         -2.9610     6.9900    11.2900 h1         1 O42       0.069450
     38 H12         -1.3880     7.0610    12.0850 h1         1 O42       0.069450
     39 H13         -2.3740     9.2960    11.9990 h1         1 O42       0.069450
     40 H14         -3.8450     8.7370    12.7910 h1         1 O42       0.069450
     41 H15         -2.7080    11.5070    13.2330 ha         1 O42       0.140500
     42 H16          1.3190    10.0330    13.1810 ha         1 O42       0.140500
     43 H17          1.9640    11.8610    11.6620 ha         1 O42       0.135500
     44 H18          0.2870    13.5360    10.9520 ha         1 O42       0.134000
     45 H19         -2.0470    13.3580    11.7550 ha         1 O42       0.135500
@<TRIPOS>BOND
     1     1     2 2   
     2     2     3 2   
     3     2     4 1   
     4     2     5 1   
     5     4    27 1   
     6     4    28 1   
     7     5     6 ar  
     8     5     8 ar  
     9     6     7 ar  
    10     6    29 1   
    11     7    10 ar  
    12     7    30 1   
    13     8     9 ar  
    14     8    31 1   
    15     9    10 ar  
    16     9    32 1   
    17    10    11 1   
    18    11    12 2   
    19    11    13 1   
    20    13    14 1   
    21    13    16 1   
    22    14    15 1   
    23    14    33 1   
    24    14    34 1   
    25    15    18 1   
    26    15    35 1   
    27    15    36 1   
    28    16    17 1   
    29    16    37 1   
    30    16    38 1   
    31    17    18 1   
    32    17    39 1   
    33    17    40 1   
    34    18    19 1   
    35    19    20 2   
    36    19    21 1   
    37    21    22 ar  
    38    21    23 ar  
    39    22    26 ar  
    40    22    41 1   
    41    23    24 ar  
    42    23    42 1   
    43    24    25 ar  
    44    24    43 1   
    45    25    26 ar  
    46    25    44 1   
    47    26    45 1   
@<TRIPOS>SUBSTRUCTURE
     1 O42         1 TEMP              0 ****  ****    0 ROOT
