@<TRIPOS>MOLECULE
O42
   45    47     1     0     0
SMALL
No Charge or Current Charge


@<TRIPOS>ATOM
      1 OAE         -6.8010     0.8460    17.3810 o          1 O42      -0.542000
      2 SBA         -5.4780     0.7100    16.7760 sy         1 O42       1.124600
      3 OAD         -4.3050     0.3060    17.5480 o          1 O42      -0.542000
      4 NAA         -5.6700    -0.5090    15.7080 n8         1 O42      -1.003100
      5 CAW         -5.1030     2.1180    15.7240 ca         1 O42      -0.255500
      6 CAL         -3.7680     2.4120    15.3820 ca         1 O42      -0.015500
      7 CAJ         -3.4760     3.5140    14.5590 ca         1 O42      -0.100500
      8 CAM         -6.1420     2.9260    15.2230 ca         1 O42      -0.015500
      9 CAK         -5.8460     4.0260    14.4000 ca         1 O42      -0.100500
     10 CAV         -4.5100     4.3480    14.0740 ca         1 O42      -0.090600
     11 CAS         -4.2260     5.5280    13.1640 c          1 O42       0.609700
     12 OAB         -5.0230     5.8420    12.2870 o          1 O42      -0.586100
     13 NAY         -2.9830     6.1960    13.2780 n          1 O42      -0.402800
     14 CAP         -2.3430     6.4540    14.6020 c6         1 O42       0.068500
     15 CAR         -2.5050     7.9330    15.0330 c6         1 O42       0.070500
     16 CAO         -2.5130     7.1460    12.2320 c6         1 O42       0.068500
     17 CAQ         -2.6750     8.6250    12.6640 c6         1 O42       0.070500
     18 NAZ         -2.0360     8.8820    13.9870 n          1 O42      -0.406800
     19 CAT         -0.7930     9.5490    14.1040 c          1 O42       0.616700
     20 OAC          0.0030     9.2380    14.9830 o          1 O42      -0.589100
     21 CAX         -0.5060    10.7260    13.1930 ca         1 O42      -0.147600
     22 CAU         -1.5390    11.5620    12.7080 ca         1 O42      -0.075000
     23 CAN          0.8320    11.0420    12.8660 ca         1 O42      -0.075000
     24 CAH          1.1270    12.1410    12.0410 ca         1 O42      -0.117000
     25 CAG          0.0910    12.9480    11.5450 ca         1 O42      -0.092000
     26 CAI         -1.2410    12.6610    11.8840 ca         1 O42      -0.117000
     27 H1          -5.0350    -1.2000    16.1030 hn         1 O42       0.475000
     28 H2          -6.5780    -0.8650    15.9980 hn         1 O42       0.475000
     29 H3          -2.9540     1.7860    15.7440 ha         1 O42       0.141000
     30 H4          -2.4410     3.7030    14.2860 ha         1 O42       0.129500
     31 H5          -7.1810     2.7050    15.4660 ha         1 O42       0.141000
     32 H6          -6.6620     4.6390    14.0210 ha         1 O42       0.129500
     33 H7          -2.7790     5.8230    15.3870 h1         1 O42       0.069450
     34 H8          -1.2730     6.2100    14.5370 h1         1 O42       0.069450
     35 H9          -1.9720     8.1000    15.9800 h1         1 O42       0.069450
     36 H10         -3.5690     8.1300    15.2310 h1         1 O42       0.069450
     37 H11         -3.0470     6.9790    11.2860 h1         1 O42       0.069450
     38 H12         -1.4500     6.9490    12.0340 h1         1 O42       0.069450
     39 H13         -2.2390     9.2560    11.8790 h1         1 O42       0.069450
     40 H14         -3.7450     8.8690    12.7280 h1         1 O42       0.069450
     41 H15         -2.5750    11.3760    12.9810 ha         1 O42       0.122500
     42 H16          1.6470    10.4270    13.2440 ha         1 O42       0.122500
     43 H17          2.1610    12.3670    11.7870 ha         1 O42       0.117500
     44 H18          0.3210    13.8000    10.9080 ha         1 O42       0.116000
     45 H19         -2.0430    13.2950    11.5140 ha         1 O42       0.117500
@<TRIPOS>BOND
     1     1     2 2   
     2     2     3 2   
     3     2     4 1   
     4     2     5 1   
     5     4    27 1   
     6     4    28 1   
     7     5     6 ar  
     8     5     8 ar  
     9     6     7 ar  
    10     6    29 1   
    11     7    10 ar  
    12     7    30 1   
    13     8     9 ar  
    14     8    31 1   
    15     9    10 ar  
    16     9    32 1   
    17    10    11 1   
    18    11    12 2   
    19    11    13 1   
    20    13    14 1   
    21    13    16 1   
    22    14    15 1   
    23    14    33 1   
    24    14    34 1   
    25    15    18 1   
    26    15    35 1   
    27    15    36 1   
    28    16    17 1   
    29    16    37 1   
    30    16    38 1   
    31    17    18 1   
    32    17    39 1   
    33    17    40 1   
    34    18    19 1   
    35    19    20 2   
    36    19    21 1   
    37    21    22 ar  
    38    21    23 ar  
    39    22    26 ar  
    40    22    41 1   
    41    23    24 ar  
    42    23    42 1   
    43    24    25 ar  
    44    24    43 1   
    45    25    26 ar  
    46    25    44 1   
    47    26    45 1   
@<TRIPOS>SUBSTRUCTURE
     1 O42         1 TEMP              0 ****  ****    0 ROOT
