@<TRIPOS>MOLECULE
O43
   72    77     1     0     0
SMALL
No Charge or Current Charge


@<TRIPOS>ATOM
      1 O01         -6.5460    -3.2080     0.6380 o          1 O43      -0.596100
      2 C02         -5.9840    -2.2710     0.0840 c          1 O43       0.615700
      3 N03         -6.7010    -1.3250    -0.6190 ns         1 O43      -0.484900
      4 C04         -8.1310    -1.3290    -0.7660 cx         1 O43       0.052700
      5 C05         -8.7790    -0.0880    -1.3280 cx         1 O43      -0.136900
      6 C06         -8.9300    -0.4220     0.1370 cx         1 O43      -0.136900
      7 C07         -4.4790    -2.0900     0.1310 ca         1 O43      -0.152600
      8 C08         -3.6870    -3.0250     0.8340 ca         1 O43      -0.076000
      9 C09         -2.2910    -2.8850     0.8990 ca         1 O43      -0.107500
     10 C10         -1.6430    -1.8050     0.2680 ca         1 O43       0.020200
     11 C11         -2.4280    -0.8730    -0.4390 ca         1 O43      -0.107500
     12 C12         -3.8260    -1.0090    -0.5090 ca         1 O43      -0.076000
     13 C13         -0.1820    -1.6730     0.3450 cc         1 O43      -0.089300
     14 C14          0.6870    -2.7450     0.3990 cd         1 O43      -0.047400
     15 N15          2.0060    -2.3010     0.4190 nd         1 O43      -0.287600
     16 C16          1.9390    -0.9740     0.3740 cc         1 O43      -0.189000
     17 N17          0.6360    -0.5740     0.3080 na         1 O43       0.312900
     18 N18          0.1870     0.7260     0.3050 nc         1 O43      -0.632800
     19 C19          1.1870     1.5980     0.3080 cd         1 O43       0.641900
     20 N20          0.8490     2.9140     0.2890 nu         1 O43      -0.939100
     21 C21         -0.5040     3.4370     0.0240 c6         1 O43       0.246500
     22 C22         -0.3930     4.7970    -0.7110 c6         1 O43      -0.090900
     23 C23         -1.7920     5.4170    -0.9580 c6         1 O43      -0.070900
     24 C24         -2.5790     5.5690     0.3670 c6         1 O43      -0.078400
     25 C25         -2.6820     4.2170     1.1170 c6         1 O43      -0.070900
     26 C26         -1.2810     3.6010     1.3570 c6         1 O43      -0.090900
     27 C27          2.5830     1.3170     0.3440 cd         1 O43      -0.358000
     28 C28          2.9600     0.0110     0.3840 cc         1 O43       0.448000
     29 N29          4.2530    -0.4370     0.4360 nu         1 O43      -0.942200
     30 C30          5.4760     0.3680     0.3340 c3         1 O43       0.226800
     31 C31          6.7480    -0.5230     0.2330 c6         1 O43      -0.076700
     32 C32          6.8000    -1.3480    -1.0870 c6         1 O43      -0.110900
     33 C33          8.1220    -2.1490    -1.1860 c6         1 O43       0.155100
     34 O34          9.2490    -1.2550    -1.0640 os         1 O43      -0.448000
     35 C35          9.3040    -0.5550     0.1980 c6         1 O43       0.155100
     36 C36          8.0430     0.3280     0.3660 c6         1 O43      -0.110900
     37 H1          -6.1650    -0.5860    -1.0540 hn         1 O43       0.319500
     38 H2          -8.5570    -2.2970    -1.0350 h1         1 O43       0.088700
     39 H3          -8.1410     0.7520    -1.5930 hc         1 O43       0.076950
     40 H4          -9.6470    -0.2200    -1.9690 hc         1 O43       0.076950
     41 H5          -9.8970    -0.7790     0.4800 hc         1 O43       0.076950
     42 H6          -8.3880     0.1880     0.8560 hc         1 O43       0.076950
     43 H7          -4.1540    -3.8680     1.3390 ha         1 O43       0.120500
     44 H8          -1.7140    -3.6170     1.4590 ha         1 O43       0.128500
     45 H9          -1.9580    -0.0410    -0.9550 ha         1 O43       0.128500
     46 H10         -4.3830    -0.2620    -1.0680 ha         1 O43       0.120500
     47 H11          0.4440    -3.8040     0.4130 h4         1 O43       0.228000
     48 H12          1.6420     3.5450     0.2400 hn         1 O43       0.493000
     49 H13         -1.0680     2.7520    -0.6290 h1         1 O43       0.059700
     50 H14          0.2160     5.4970    -0.1210 hc         1 O43       0.049450
     51 H15          0.1230     4.6620    -1.6720 hc         1 O43       0.049450
     52 H16         -1.6860     6.3960    -1.4440 hc         1 O43       0.041200
     53 H17         -2.3590     4.7830    -1.6550 hc         1 O43       0.041200
     54 H18         -2.0820     6.3100     1.0090 hc         1 O43       0.040700
     55 H19         -3.5850     5.9590     0.1610 hc         1 O43       0.040700
     56 H20         -3.1960     4.3610     2.0770 hc         1 O43       0.041200
     57 H21         -3.2980     3.5170     0.5350 hc         1 O43       0.041200
     58 H22         -1.3890     2.6270     1.8510 hc         1 O43       0.049450
     59 H23         -0.7110     4.2400     2.0460 hc         1 O43       0.049450
     60 H24          3.3150     2.1120     0.3520 ha         1 O43       0.126000
     61 H25          4.3330    -1.4540     0.4300 hn         1 O43       0.518000
     62 H26          5.4290     1.0240    -0.5460 h1         1 O43       0.046200
     63 H27          5.5640     1.0070     1.2240 h1         1 O43       0.046200
     64 H28          6.7140    -1.2190     1.0840 hc         1 O43       0.052700
     65 H29          5.9510    -2.0420    -1.1440 hc         1 O43       0.054200
     66 H30          6.7160    -0.6790    -1.9540 hc         1 O43       0.054200
     67 H31          8.1700    -2.9070    -0.3910 h1         1 O43       0.046700
     68 H32          8.1770    -2.6650    -2.1550 h1         1 O43       0.046700
     69 H33          9.3730    -1.2850     1.0180 h1         1 O43       0.046700
     70 H34         10.2070     0.0720     0.2210 h1         1 O43       0.046700
     71 H35          8.0530     1.1220    -0.3930 hc         1 O43       0.054200
     72 H36          8.0720     0.8270     1.3440 hc         1 O43       0.054200
@<TRIPOS>BOND
     1     1     2 2   
     2     2     3 1   
     3     2     7 1   
     4     3     4 1   
     5     3    37 1   
     6     4     5 1   
     7     4     6 1   
     8     4    38 1   
     9     5     6 1   
    10     5    39 1   
    11     5    40 1   
    12     6    41 1   
    13     6    42 1   
    14     7     8 ar  
    15     7    12 ar  
    16     8     9 ar  
    17     8    43 1   
    18     9    10 ar  
    19     9    44 1   
    20    10    11 ar  
    21    10    13 1   
    22    11    12 ar  
    23    11    45 1   
    24    12    46 1   
    25    13    14 2   
    26    13    17 1   
    27    14    15 1   
    28    14    47 1   
    29    15    16 2   
    30    16    17 1   
    31    16    28 1   
    32    17    18 1   
    33    18    19 2   
    34    19    20 1   
    35    19    27 1   
    36    20    21 1   
    37    20    48 1   
    38    21    22 1   
    39    21    26 1   
    40    21    49 1   
    41    22    23 1   
    42    22    50 1   
    43    22    51 1   
    44    23    24 1   
    45    23    52 1   
    46    23    53 1   
    47    24    25 1   
    48    24    54 1   
    49    24    55 1   
    50    25    26 1   
    51    25    56 1   
    52    25    57 1   
    53    26    58 1   
    54    26    59 1   
    55    27    28 2   
    56    27    60 1   
    57    28    29 1   
    58    29    30 1   
    59    29    61 1   
    60    30    31 1   
    61    30    62 1   
    62    30    63 1   
    63    31    32 1   
    64    31    36 1   
    65    31    64 1   
    66    32    33 1   
    67    32    65 1   
    68    32    66 1   
    69    33    34 1   
    70    33    67 1   
    71    33    68 1   
    72    34    35 1   
    73    35    36 1   
    74    35    69 1   
    75    35    70 1   
    76    36    71 1   
    77    36    72 1   
@<TRIPOS>SUBSTRUCTURE
     1 O43         1 TEMP              0 ****  ****    0 ROOT
