@<TRIPOS>MOLECULE
O43
   72    77     1     0     0
SMALL
abcg2


@<TRIPOS>ATOM
      1 O01         -6.4640    -2.9980    -0.2920 o          1 O43      -0.596100
      2 C02         -5.9170    -1.9050    -0.2350 c          1 O43       0.615700
      3 N03         -6.6070    -0.7500    -0.2470 ns         1 O43      -0.484900
      4 C04         -8.0220    -0.7110    -0.4160 cx         1 O43       0.052700
      5 C05         -8.7780     0.3550     0.3050 cx         1 O43      -0.136900
      6 C06         -8.9130    -1.0750     0.7300 cx         1 O43      -0.136900
      7 C07         -4.4310    -1.7890    -0.1410 ca         1 O43      -0.152600
      8 C08         -3.7100    -2.8710     0.3610 ca         1 O43      -0.076000
      9 C09         -2.3350    -2.8170     0.4650 ca         1 O43      -0.107500
     10 C10         -1.6180    -1.6890     0.0440 ca         1 O43       0.020200
     11 C11         -2.3430    -0.6140    -0.4800 ca         1 O43      -0.107500
     12 C12         -3.7240    -0.6670    -0.5670 ca         1 O43      -0.076000
     13 C13         -0.1680    -1.7090     0.1510 cc         1 O43      -0.089300
     14 C14          0.6950    -2.7860     0.2920 cd         1 O43      -0.047400
     15 N15          1.9780    -2.3900     0.3770 nd         1 O43      -0.287600
     16 C16          1.9320    -1.0710     0.2950 cc         1 O43      -0.189000
     17 N17          0.6630    -0.6160     0.1480 na         1 O43       0.312900
     18 N18          0.2770     0.6650     0.0490 nc         1 O43      -0.632800
     19 C19          1.2530     1.5420     0.1220 cd         1 O43       0.641900
     20 N20          0.9090     2.8470     0.0310 nu         1 O43      -0.939100
     21 C21         -0.4160     3.3080    -0.3330 c6         1 O43       0.246500
     22 C22         -0.3270     4.7390    -0.8560 c6         1 O43      -0.090900
     23 C23         -1.6980     5.2520    -1.2850 c6         1 O43      -0.070900
     24 C24         -2.7190     5.1470    -0.1570 c6         1 O43      -0.078400
     25 C25         -2.7890     3.7240     0.3850 c6         1 O43      -0.070900
     26 C26         -1.4150     3.2280     0.8230 c6         1 O43      -0.090900
     27 C27          2.6290     1.2040     0.2870 cd         1 O43      -0.358000
     28 C28          2.9970    -0.1180     0.3560 cc         1 O43       0.448000
     29 N29          4.2480    -0.5850     0.4620 nu         1 O43      -0.942200
     30 C30          5.4090     0.2600     0.6020 c3         1 O43       0.226800
     31 C31          6.6930    -0.5420     0.4530 c6         1 O43      -0.076700
     32 C32          6.8260    -1.1920    -0.9240 c6         1 O43      -0.110900
     33 C33          8.1760    -1.8810    -1.0580 c6         1 O43       0.155100
     34 O34          9.2510    -0.9990    -0.8170 os         1 O43      -0.448000
     35 C35          9.1950    -0.4370     0.4750 c6         1 O43       0.155100
     36 C36          7.9100     0.3450     0.7000 c6         1 O43      -0.110900
     37 H1          -6.1180     0.1250    -0.1560 hn         1 O43       0.319500
     38 H2          -8.3690    -0.9770    -1.4090 h1         1 O43       0.088700
     39 H3          -8.2190     1.0220     0.9510 hc         1 O43       0.076950
     40 H4          -9.6010     0.8250    -0.2160 hc         1 O43       0.076950
     41 H5          -9.8320    -1.5990     0.5020 hc         1 O43       0.076950
     42 H6          -8.4400    -1.3730     1.6560 hc         1 O43       0.076950
     43 H7          -4.2320    -3.7590     0.6940 ha         1 O43       0.120500
     44 H8          -1.8110    -3.6620     0.8920 ha         1 O43       0.128500
     45 H9          -1.8300     0.2700    -0.8270 ha         1 O43       0.128500
     46 H10         -4.2350     0.1810    -1.0050 ha         1 O43       0.120500
     47 H11          0.4240    -3.8300     0.3200 h4         1 O43       0.228000
     48 H12          1.6580     3.5190     0.0290 hn         1 O43       0.493000
     49 H13         -0.7890     2.6710    -1.1460 h1         1 O43       0.059700
     50 H14          0.0770     5.3840    -0.0670 hc         1 O43       0.049450
     51 H15          0.3720     4.7850    -1.6950 hc         1 O43       0.049450
     52 H16         -1.6130     6.2850    -1.6290 hc         1 O43       0.041200
     53 H17         -2.0450     4.6670    -2.1430 hc         1 O43       0.041200
     54 H18         -2.4410     5.8310     0.6520 hc         1 O43       0.040700
     55 H19         -3.7030     5.4680    -0.5090 hc         1 O43       0.040700
     56 H20         -3.4900     3.6650     1.2210 hc         1 O43       0.041200
     57 H21         -3.1830     3.0600    -0.3940 hc         1 O43       0.041200
     58 H22         -1.4800     2.2000     1.1830 hc         1 O43       0.049450
     59 H23         -1.0450     3.8410     1.6520 hc         1 O43       0.049450
     60 H24          3.3610     1.9980     0.3370 ha         1 O43       0.126000
     61 H25          4.3540    -1.5710     0.6430 hn         1 O43       0.518000
     62 H26          5.3810     1.0390    -0.1670 h1         1 O43       0.046200
     63 H27          5.4010     0.7730     1.5720 h1         1 O43       0.046200
     64 H28          6.6920    -1.3370     1.2120 hc         1 O43       0.052700
     65 H29          6.0410    -1.9330    -1.0960 hc         1 O43       0.054200
     66 H30          6.7200    -0.4260    -1.7000 hc         1 O43       0.054200
     67 H31          8.2190    -2.7320    -0.3610 h1         1 O43       0.046700
     68 H32          8.3080    -2.2770    -2.0660 h1         1 O43       0.046700
     69 H33          9.2800    -1.2250     1.2390 h1         1 O43       0.046700
     70 H34         10.0650     0.2140     0.5780 h1         1 O43       0.046700
     71 H35          7.8840     1.2040     0.0210 hc         1 O43       0.054200
     72 H36          7.9030     0.7400     1.7200 hc         1 O43       0.054200
@<TRIPOS>BOND
     1     1     2 2   
     2     2     3 1   
     3     2     7 1   
     4     3     4 1   
     5     3    37 1   
     6     4     5 1   
     7     4     6 1   
     8     4    38 1   
     9     5     6 1   
    10     5    39 1   
    11     5    40 1   
    12     6    41 1   
    13     6    42 1   
    14     7     8 ar  
    15     7    12 ar  
    16     8     9 ar  
    17     8    43 1   
    18     9    10 ar  
    19     9    44 1   
    20    10    11 ar  
    21    10    13 1   
    22    11    12 ar  
    23    11    45 1   
    24    12    46 1   
    25    13    14 2   
    26    13    17 1   
    27    14    15 1   
    28    14    47 1   
    29    15    16 2   
    30    16    17 1   
    31    16    28 1   
    32    17    18 1   
    33    18    19 2   
    34    19    20 1   
    35    19    27 1   
    36    20    21 1   
    37    20    48 1   
    38    21    22 1   
    39    21    26 1   
    40    21    49 1   
    41    22    23 1   
    42    22    50 1   
    43    22    51 1   
    44    23    24 1   
    45    23    52 1   
    46    23    53 1   
    47    24    25 1   
    48    24    54 1   
    49    24    55 1   
    50    25    26 1   
    51    25    56 1   
    52    25    57 1   
    53    26    58 1   
    54    26    59 1   
    55    27    28 2   
    56    27    60 1   
    57    28    29 1   
    58    29    30 1   
    59    29    61 1   
    60    30    31 1   
    61    30    62 1   
    62    30    63 1   
    63    31    32 1   
    64    31    36 1   
    65    31    64 1   
    66    32    33 1   
    67    32    65 1   
    68    32    66 1   
    69    33    34 1   
    70    33    67 1   
    71    33    68 1   
    72    34    35 1   
    73    35    36 1   
    74    35    69 1   
    75    35    70 1   
    76    36    71 1   
    77    36    72 1   
@<TRIPOS>SUBSTRUCTURE
     1 O43         1 TEMP              0 ****  ****    0 ROOT
