@<TRIPOS>MOLECULE
O44
   65    69     1     0     0
SMALL
abcg2


@<TRIPOS>ATOM
      1 OBJ         -2.9270    -9.8640    -6.9660 o          1 O44      -0.548000
      2 SBH         -2.2980   -10.5120    -8.0700 sy         1 O44       1.371400
      3 OBI         -3.0160   -11.4310    -8.8950 o          1 O44      -0.548000
      4 CBE         -0.7190   -11.1300    -7.6530 ca         1 O44      -0.352500
      5 CBD         -0.0900   -10.6770    -6.4960 ca         1 O44      -0.002500
      6 CBC          1.1810   -11.1430    -6.2010 ca         1 O44      -0.122000
      7 CBF         -0.1050   -12.0470    -8.5040 ca         1 O44      -0.002500
      8 CBG          1.1690   -12.4870    -8.1960 ca         1 O44      -0.122000
      9 CBB          1.8300   -12.0400    -7.0520 ca         1 O44      -0.019300
     10 CBA          3.2200   -12.5310    -6.7480 c3         1 O44       0.202100
     11 NAX          4.0720   -11.5200    -6.1410 n3         1 O44      -0.724600
     12 CAY          5.3250   -12.1000    -5.6630 c6         1 O44       0.140300
     13 CAZ          6.1790   -11.0580    -4.9510 c6         1 O44       0.230300
     14 CAW          4.3380   -10.3990    -7.0410 c6         1 O44       0.140300
     15 CAV          5.1490    -9.3340    -6.3210 c6         1 O44       0.230300
     16 NAA          6.3870    -9.9060    -5.8160 nh         1 O44      -0.782300
     17 C2           7.6090    -9.4380    -6.1600 ca         1 O44       0.438900
     18 N3           7.6500    -8.4180    -7.0440 nb         1 O44      -0.298000
     19 N1           8.6910   -10.0170    -5.6110 nb         1 O44      -0.296000
     20 C6           9.8800    -9.5150    -5.9710 ca         1 O44       0.133500
     21 CAQ         11.1100   -10.1640    -5.3790 c          1 O44       0.501600
     22 NAR         10.8540   -11.2250    -4.6010 ns         1 O44      -0.484900
     23 CAS         11.8970   -11.9690    -3.9190 c3         1 O44       0.192100
     24 CAT         12.1700   -11.4800    -2.5660 c1         1 O44      -0.176100
     25 CBL         12.3960   -11.1160    -1.4430 c1         1 O44      -0.215000
     26 OAU         12.2430    -9.7420    -5.6190 o          1 O44      -0.597100
     27 C5          10.0320    -8.4670    -6.8460 ca         1 O44      -0.283000
     28 C4           8.8390    -7.9420    -7.3810 ca         1 O44       0.426900
     29 NAH          8.9150    -6.9140    -8.2810 nu         1 O44      -0.934900
     30 CAI          7.8760    -6.3230    -8.9750 cc         1 O44       0.252000
     31 CAJ          6.5450    -6.6550    -9.1610 cd         1 O44      -0.238000
     32 NAP          8.0950    -5.1900    -9.6840 na         1 O44      -0.060200
     33 NAO          6.9760    -4.7560   -10.3260 nc         1 O44      -0.511800
     34 CAK          6.0360    -5.6410   -10.0070 cd         1 O44       0.306300
     35 CAL          4.6620    -5.5050   -10.5220 cx         1 O44      -0.163000
     36 CAN          3.4920    -6.0060    -9.7040 cx         1 O44      -0.121900
     37 CAM          3.8910    -6.7340   -10.9520 cx         1 O44      -0.121900
     38 H3          -0.5870    -9.9740    -5.8440 ha         1 O44       0.140000
     39 H4           1.6900   -10.7960    -5.3130 ha         1 O44       0.130000
     40 H5          -0.6120   -12.3870    -9.3950 ha         1 O44       0.140000
     41 H6           1.6670   -13.1810    -8.8640 ha         1 O44       0.130000
     42 H7           3.1460   -13.3690    -6.0490 h1         1 O44       0.048700
     43 H8           3.6590   -12.9360    -7.6730 h1         1 O44       0.048700
     44 H10          5.0950   -12.9090    -4.9690 h1         1 O44       0.046450
     45 H11          5.9050   -12.5240    -6.5000 h1         1 O44       0.046450
     46 H12          7.1390   -11.4820    -4.6790 h1         1 O44       0.070700
     47 H13          5.6700   -10.7310    -4.0390 h1         1 O44       0.070700
     48 H14          3.3930    -9.9670    -7.3700 h1         1 O44       0.046450
     49 H15          4.8850   -10.7330    -7.9390 h1         1 O44       0.046450
     50 H16          5.3750    -8.5100    -6.9850 h1         1 O44       0.070700
     51 H17          4.5670    -8.9520    -5.4780 h1         1 O44       0.070700
     52 H18          9.8800   -11.4480    -4.4370 hn         1 O44       0.345500
     53 H19         11.6040   -13.0180    -3.8690 h1         1 O44       0.073700
     54 H20         12.8050   -11.9110    -4.5200 h1         1 O44       0.073700
     55 H21         12.5780   -10.7920    -0.4460 ha         1 O44       0.255000
     56 H22         11.0050    -8.0870    -7.1160 ha         1 O44       0.156000
     57 H23          9.8430    -6.5660    -8.4750 hn         1 O44       0.506000
     58 H24          6.0270    -7.4970    -8.7480 ha         1 O44       0.158000
     59 H25          8.9530    -4.6700    -9.7670 hn         1 O44       0.368000
     60 H26          4.4990    -4.6030   -11.0990 hc         1 O44       0.095700
     61 H27          2.5850    -5.4170    -9.7230 hc         1 O44       0.073200
     62 H28          3.7210    -6.4720    -8.7560 hc         1 O44       0.073200
     63 H29          3.2560    -6.6460   -11.8240 hc         1 O44       0.073200
     64 H30          4.3900    -7.6880   -10.8410 hc         1 O44       0.073200
     65 F1          -1.8860    -9.3220    -9.0580 f          1 O44      -0.268900
@<TRIPOS>BOND
     1     1     2 2   
     2     2     3 2   
     3     2     4 1   
     4     2    65 1   
     5     4     5 ar  
     6     4     7 ar  
     7     5     6 ar  
     8     5    38 1   
     9     6     9 ar  
    10     6    39 1   
    11     7     8 ar  
    12     7    40 1   
    13     8     9 ar  
    14     8    41 1   
    15     9    10 1   
    16    10    11 1   
    17    10    42 1   
    18    10    43 1   
    19    11    12 1   
    20    11    14 1   
    21    12    13 1   
    22    12    44 1   
    23    12    45 1   
    24    13    16 1   
    25    13    46 1   
    26    13    47 1   
    27    14    15 1   
    28    14    48 1   
    29    14    49 1   
    30    15    16 1   
    31    15    50 1   
    32    15    51 1   
    33    16    17 1   
    34    17    18 ar  
    35    17    19 ar  
    36    18    28 ar  
    37    19    20 ar  
    38    20    21 1   
    39    20    27 ar  
    40    21    22 1   
    41    21    26 2   
    42    22    23 1   
    43    22    52 1   
    44    23    24 1   
    45    23    53 1   
    46    23    54 1   
    47    24    25 3   
    48    25    55 1   
    49    27    28 ar  
    50    27    56 1   
    51    28    29 1   
    52    29    30 1   
    53    29    57 1   
    54    30    31 2   
    55    30    32 1   
    56    31    34 1   
    57    31    58 1   
    58    32    33 1   
    59    32    59 1   
    60    33    34 2   
    61    34    35 1   
    62    35    36 1   
    63    35    37 1   
    64    35    60 1   
    65    36    37 1   
    66    36    61 1   
    67    36    62 1   
    68    37    63 1   
    69    37    64 1   
@<TRIPOS>SUBSTRUCTURE
     1 O44         1 TEMP              0 ****  ****    0 ROOT
