@<TRIPOS>MOLECULE
O44
   65    69     1     0     0
SMALL
No Charge or Current Charge


@<TRIPOS>ATOM
      1 OBJ         -3.2680   -10.1600    -6.1410 o          1 O44      -0.548000
      2 SBH         -2.5520   -10.3630    -7.4110 sy         1 O44       1.371400
      3 OBI         -3.1690   -11.0320    -8.5680 o          1 O44      -0.548000
      4 CBE         -0.9140   -11.0690    -7.0900 ca         1 O44      -0.352500
      5 CBD         -0.3180   -10.9300    -5.8180 ca         1 O44      -0.002500
      6 CBC          0.9540   -11.4770    -5.5750 ca         1 O44      -0.122000
      7 CBF         -0.2220   -11.7530    -8.1130 ca         1 O44      -0.002500
      8 CBG          1.0500   -12.2950    -7.8610 ca         1 O44      -0.122000
      9 CBB          1.6460   -12.1620    -6.5920 ca         1 O44      -0.019300
     10 CBA          3.0290   -12.7490    -6.3180 c3         1 O44       0.202100
     11 NAX          4.0710   -11.7210    -6.0690 n3         1 O44      -0.724600
     12 CAY          5.3770   -12.3190    -5.6630 c6         1 O44       0.140300
     13 CAZ          6.4650   -11.2490    -5.3280 c6         1 O44       0.230300
     14 CAW          4.2870   -10.8070    -7.2320 c6         1 O44       0.140300
     15 CAV          5.3400    -9.6910    -6.9470 c6         1 O44       0.230300
     16 NAA          6.6470   -10.2240    -6.4170 nh         1 O44      -0.782300
     17 C2           7.8450    -9.4670    -6.5270 ca         1 O44       0.438900
     18 N3           7.8320    -8.4140    -7.3630 nb         1 O44      -0.298000
     19 N1           8.9000    -9.8690    -5.7890 nb         1 O44      -0.296000
     20 C6          10.0480    -9.1550    -5.8860 ca         1 O44       0.133500
     21 CAQ         11.2560    -9.5850    -5.0610 c          1 O44       0.501600
     22 NAR         11.0770   -10.6960    -4.2630 ns         1 O44      -0.484900
     23 CAS         12.1020   -11.2680    -3.4000 c3         1 O44       0.192100
     24 CAT         11.5500   -12.4360    -2.7030 c1         1 O44      -0.176100
     25 CBL         11.0680   -13.3950    -2.1420 c1         1 O44      -0.215000
     26 OAU         12.3290    -8.9940    -5.0900 o          1 O44      -0.597100
     27 C5          10.1070    -8.0360    -6.7410 ca         1 O44      -0.283000
     28 C4           8.9620    -7.7070    -7.4670 ca         1 O44       0.426900
     29 NAH          8.9660    -6.6080    -8.3170 nu         1 O44      -0.934900
     30 CAI          7.9860    -6.0480    -9.1090 cc         1 O44       0.252000
     31 CAJ          6.9350    -6.6180    -9.7520 cd         1 O44      -0.238000
     32 NAP          7.9450    -4.7160    -9.5110 na         1 O44      -0.060200
     33 NAO          6.8780    -4.4200   -10.3550 nc         1 O44      -0.511800
     34 CAK          6.2910    -5.5960   -10.4740 cd         1 O44       0.306300
     35 CAL          5.0780    -5.7950   -11.3080 cx         1 O44      -0.163000
     36 CAN          3.7300    -5.2940   -10.8370 cx         1 O44      -0.121900
     37 CAM          3.9980    -6.7780   -10.9090 cx         1 O44      -0.121900
     38 H3          -0.8310   -10.4020    -5.0150 ha         1 O44       0.140000
     39 H4           1.4100   -11.3630    -4.5950 ha         1 O44       0.130000
     40 H5          -0.6620   -11.8670    -9.1040 ha         1 O44       0.140000
     41 H6           1.5740   -12.8180    -8.6570 ha         1 O44       0.130000
     42 H7           2.9440   -13.4070    -5.4420 h1         1 O44       0.048700
     43 H8           3.3240   -13.3860    -7.1630 h1         1 O44       0.048700
     44 H10          5.2440   -12.9630    -4.7820 h1         1 O44       0.046450
     45 H11          5.7620   -12.9610    -6.4700 h1         1 O44       0.046450
     46 H12          7.4000   -11.7940    -5.1320 h1         1 O44       0.070700
     47 H13          6.1820   -10.7470    -4.3910 h1         1 O44       0.070700
     48 H14          3.3450   -10.3190    -7.5200 h1         1 O44       0.046450
     49 H15          4.6240   -11.3850    -8.1060 h1         1 O44       0.046450
     50 H16          5.4830    -9.1390    -7.8870 h1         1 O44       0.070700
     51 H17          4.9090    -8.9840    -6.2220 h1         1 O44       0.070700
     52 H18         10.1650   -11.1360    -4.2880 hn         1 O44       0.345500
     53 H19         12.9660   -11.5710    -4.0050 h1         1 O44       0.073700
     54 H20         12.4270   -10.5180    -2.6670 h1         1 O44       0.073700
     55 H21         10.6530   -14.2460    -1.6390 ha         1 O44       0.255000
     56 H22         11.0170    -7.4520    -6.8330 ha         1 O44       0.156000
     57 H23          9.8070    -6.0370    -8.2290 hn         1 O44       0.506000
     58 H24          6.6500    -7.6610    -9.7230 ha         1 O44       0.158000
     59 H25          8.6050    -3.9990    -9.2260 hn         1 O44       0.368000
     60 H26          5.2860    -5.6990   -12.3710 hc         1 O44       0.095700
     61 H27          3.0630    -4.8620   -11.5790 hc         1 O44       0.073200
     62 H28          3.6720    -4.8380    -9.8510 hc         1 O44       0.073200
     63 H29          3.5110    -7.3440   -11.7000 hc         1 O44       0.073200
     64 H30          4.1050    -7.3140    -9.9680 hc         1 O44       0.073200
     65 F1          -2.1350    -8.8750    -7.9280 f          1 O44      -0.268900
@<TRIPOS>BOND
     1     1     2 2   
     2     2     3 2   
     3     2     4 1   
     4     2    65 1   
     5     4     5 ar  
     6     4     7 ar  
     7     5     6 ar  
     8     5    38 1   
     9     6     9 ar  
    10     6    39 1   
    11     7     8 ar  
    12     7    40 1   
    13     8     9 ar  
    14     8    41 1   
    15     9    10 1   
    16    10    11 1   
    17    10    42 1   
    18    10    43 1   
    19    11    12 1   
    20    11    14 1   
    21    12    13 1   
    22    12    44 1   
    23    12    45 1   
    24    13    16 1   
    25    13    46 1   
    26    13    47 1   
    27    14    15 1   
    28    14    48 1   
    29    14    49 1   
    30    15    16 1   
    31    15    50 1   
    32    15    51 1   
    33    16    17 1   
    34    17    18 ar  
    35    17    19 ar  
    36    18    28 ar  
    37    19    20 ar  
    38    20    21 1   
    39    20    27 ar  
    40    21    22 1   
    41    21    26 2   
    42    22    23 1   
    43    22    52 1   
    44    23    24 1   
    45    23    53 1   
    46    23    54 1   
    47    24    25 3   
    48    25    55 1   
    49    27    28 ar  
    50    27    56 1   
    51    28    29 1   
    52    29    30 1   
    53    29    57 1   
    54    30    31 2   
    55    30    32 1   
    56    31    34 1   
    57    31    58 1   
    58    32    33 1   
    59    32    59 1   
    60    33    34 2   
    61    34    35 1   
    62    35    36 1   
    63    35    37 1   
    64    35    60 1   
    65    36    37 1   
    66    36    61 1   
    67    36    62 1   
    68    37    63 1   
    69    37    64 1   
@<TRIPOS>SUBSTRUCTURE
     1 O44         1 TEMP              0 ****  ****    0 ROOT
