@<TRIPOS>MOLECULE
O45
   19    18     1     0     0
SMALL
bcc


@<TRIPOS>ATOM
      1 C01         -3.4140     1.2940    -0.5790 c2         1 O45      -0.209000
      2 C02         -3.1710     0.0810    -0.0890 c2         1 O45      -0.120400
      3 C03         -4.2460    -0.7920     0.4870 c3         1 O45      -0.054900
      4 C04         -1.8130    -0.5480    -0.0570 c3         1 O45       0.145600
      5 C07          1.2480     0.1170     0.3980 c          1 O45       0.514100
      6 C09          2.6680    -0.4920     0.1920 c          1 O45       0.882600
      7 N06          0.3960    -0.2230    -0.5830 ns         1 O45      -0.462400
      8 O05         -0.8500     0.3210    -0.6310 os         1 O45      -0.228900
      9 O08          0.9430     0.8130     1.3480 o          1 O45      -0.617100
     10 O10          2.8280    -1.1520    -0.8520 o          1 O45      -0.796800
     11 O11          3.4750    -0.2480     1.0930 o          1 O45      -0.796800
     12 H011        -4.4210     1.6940    -0.5780 ha         1 O45       0.112500
     13 H012        -2.6440     1.9270    -0.9950 ha         1 O45       0.112500
     14 H031        -4.0110    -1.0810     1.5140 hc         1 O45       0.032367
     15 H032        -5.2100    -0.2860     0.4890 hc         1 O45       0.032367
     16 H033        -4.3500    -1.7170    -0.0850 hc         1 O45       0.032367
     17 H041        -1.5460    -0.7860     0.9800 h1         1 O45       0.035700
     18 H042        -1.8420    -1.5000    -0.6040 h1         1 O45       0.035700
     19 H061         0.6940    -0.7460    -1.3950 hn         1 O45       0.350500
@<TRIPOS>BOND
     1     1     2 2   
     2     1    12 1   
     3     1    13 1   
     4     2     3 1   
     5     2     4 1   
     6     3    14 1   
     7     3    15 1   
     8     3    16 1   
     9     4     8 1   
    10     4    17 1   
    11     4    18 1   
    12     5     6 1   
    13     5     7 1   
    14     5     9 2   
    15     6    10 1   
    16     6    11 1   
    17     7     8 1   
    18     7    19 1   
@<TRIPOS>SUBSTRUCTURE
     1 O45         1 TEMP              0 ****  ****    0 ROOT
