@<TRIPOS>MOLECULE
O45
   19    18     1     0     0
SMALL
No Charge or Current Charge


@<TRIPOS>ATOM
      1 C01         -3.5730     1.4730     0.2130 c2         1 O45      -0.309000
      2 C02         -3.2280     0.1780     0.1360 c2         1 O45      -0.120400
      3 C03         -4.1900    -0.9120    -0.3000 c3         1 O45      -0.054900
      4 C04         -1.8380    -0.3380     0.4750 c3         1 O45       0.168800
      5 C07          1.3100     0.1780    -0.1380 c          1 O45       0.447100
      6 C09          2.7980    -0.4820     0.0080 c          1 O45       0.672000
      7 N06          0.3090    -0.7350    -0.4770 ns         1 O45      -0.395400
      8 O05         -1.0280    -0.2530    -0.7110 os         1 O45      -0.252100
      9 O08          1.0690     1.3780     0.0340 o          1 O45      -0.617100
     10 O10          2.9230    -1.6890    -0.1980 o          1 O45      -0.691500
     11 O11          3.7420     0.2440     0.3180 o          1 O45      -0.691500
     12 H011        -4.5770     1.8180    -0.0370 ha         1 O45       0.162500
     13 H012        -2.8590     2.2360     0.5260 ha         1 O45       0.162500
     14 H031        -4.3320    -1.6550     0.4930 hc         1 O45       0.032367
     15 H032        -5.1770    -0.5040    -0.5500 hc         1 O45       0.032367
     16 H033        -3.8160    -1.4360    -1.1880 hc         1 O45       0.032367
     17 H041        -1.4050     0.2700     1.2810 h1         1 O45       0.035700
     18 H042        -1.8930    -1.3750     0.8300 h1         1 O45       0.035700
     19 H061         0.4990    -1.7180    -0.6620 hn         1 O45       0.350500
@<TRIPOS>BOND
     1     1     2 2   
     2     1    12 1   
     3     1    13 1   
     4     2     3 1   
     5     2     4 1   
     6     3    14 1   
     7     3    15 1   
     8     3    16 1   
     9     4     8 1   
    10     4    17 1   
    11     4    18 1   
    12     5     6 1   
    13     5     7 1   
    14     5     9 2   
    15     6    10 1   
    16     6    11 1   
    17     7     8 1   
    18     7    19 1   
@<TRIPOS>SUBSTRUCTURE
     1 O45         1 TEMP              0 ****  ****    0 ROOT
