@<TRIPOS>MOLECULE
O46
   44    46     1     0     0
SMALL
No Charge or Current Charge


@<TRIPOS>ATOM
      1 C4           6.4270     2.8090    22.8190 ca         1 O46      -0.053300
      2 C5           7.8420     2.7450    23.3840 c3         1 O46      -0.114100
      3 C6           8.6130     1.5900    22.7410 c          1 O46       0.598100
      4 C7           9.2750    -0.8460    23.1270 c6         1 O46       0.188700
      5 C8           9.1670    -1.8060    24.3540 c6         1 O46      -0.122900
      6 C10          7.0380    -1.8860    22.3750 c6         1 O46       0.152100
      7 C13         11.5820     0.0470    23.8010 ca         1 O46      -0.112000
      8 C15         13.5170    -0.0250    22.3290 ca         1 O46      -0.143000
      9 C17         11.3720    -0.9020    21.5750 ca         1 O46      -0.131000
     10 N            8.6270     0.4280    23.4840 ns         1 O46      -0.513900
     11 C            4.8220     3.7240    21.2260 ca         1 O46       0.136100
     12 O            4.5390     4.5670    20.1930 oh         1 O46      -0.534100
     13 C1           3.8150     2.9060    21.7620 ca         1 O46      -0.196000
     14 C11          8.4810    -1.5170    21.9590 c6         1 O46      -0.122900
     15 C12         10.7740    -0.5720    22.8170 ca         1 O46      -0.048300
     16 C14         12.9410     0.3170    23.5620 ca         1 O46      -0.086000
     17 C16         12.7290    -0.6300    21.3410 ca         1 O46       0.164000
     18 C18          6.1230     3.6760    21.7510 ca         1 O46      -0.124000
     19 C2           4.1110     2.0370    22.8260 ca         1 O46      -0.068000
     20 C3           5.4130     1.9900    23.3520 ca         1 O46      -0.150000
     21 C9           7.7030    -2.2050    24.6720 c6         1 O46       0.152100
     22 F           13.2810    -0.9540    20.1520 f          1 O46      -0.186000
     23 O1           9.1370     1.6880    21.6400 o          1 O46      -0.589100
     24 O2           7.0830    -2.7800    23.5050 os         1 O46      -0.456000
     25 H1           7.7810     2.5920    24.4670 hc         1 O46       0.072200
     26 H2           8.3700     3.6820    23.1760 hc         1 O46       0.072200
     27 H3           9.7480    -2.7180    24.1560 hc         1 O46       0.067950
     28 H4           9.6140    -1.3510    25.2470 hc         1 O46       0.067950
     29 H5           6.4610    -0.9870    22.6370 h1         1 O46       0.047950
     30 H6           6.5260    -2.3900    21.5430 h1         1 O46       0.047950
     31 H7          11.1550     0.3300    24.7590 ha         1 O46       0.114000
     32 H8          14.5670     0.1820    22.1370 ha         1 O46       0.133000
     33 H9          10.8040    -1.3650    20.7750 ha         1 O46       0.133000
     34 H10          8.1560     0.4760    24.3770 hn         1 O46       0.311500
     35 H11          3.5910     4.4650    19.9610 ho         1 O46       0.463000
     36 H12          2.8050     2.9370    21.3600 ha         1 O46       0.116000
     37 H13          8.9880    -2.4380    21.6430 hc         1 O46       0.067950
     38 H14          8.4490    -0.8600    21.0820 hc         1 O46       0.067950
     39 H15         13.5450     0.7930    24.3320 ha         1 O46       0.117000
     40 H16          6.8950     4.3110    21.3240 ha         1 O46       0.142000
     41 H17          3.3330     1.4010    23.2420 ha         1 O46       0.115000
     42 H18          5.6320     1.3120    24.1740 ha         1 O46       0.108000
     43 H19          7.1210    -1.3300    24.9990 h1         1 O46       0.047950
     44 H20          7.6850    -2.9440    25.4850 h1         1 O46       0.047950
@<TRIPOS>BOND
     1     1     2 1   
     2     1    18 ar  
     3     1    20 ar  
     4     2     3 1   
     5     2    25 1   
     6     2    26 1   
     7     3    10 1   
     8     3    23 2   
     9     4     5 1   
    10     4    10 1   
    11     4    14 1   
    12     4    15 1   
    13     5    21 1   
    14     5    27 1   
    15     5    28 1   
    16     6    14 1   
    17     6    24 1   
    18     6    29 1   
    19     6    30 1   
    20     7    15 ar  
    21     7    16 ar  
    22     7    31 1   
    23     8    16 ar  
    24     8    17 ar  
    25     8    32 1   
    26     9    15 ar  
    27     9    17 ar  
    28     9    33 1   
    29    10    34 1   
    30    11    12 1   
    31    11    13 ar  
    32    11    18 ar  
    33    12    35 1   
    34    13    19 ar  
    35    13    36 1   
    36    14    37 1   
    37    14    38 1   
    38    16    39 1   
    39    17    22 1   
    40    18    40 1   
    41    19    20 ar  
    42    19    41 1   
    43    20    42 1   
    44    21    24 1   
    45    21    43 1   
    46    21    44 1   
@<TRIPOS>SUBSTRUCTURE
     1 O46         1 TEMP              0 ****  ****    0 ROOT
