@<TRIPOS>MOLECULE
O46
   44    46     1     0     0
SMALL
abcg2


@<TRIPOS>ATOM
      1 C4           6.4660     2.7830    23.0180 ca         1 O46      -0.053300
      2 C5           7.9040     2.9360    23.4630 c3         1 O46      -0.114100
      3 C6           8.7410     1.8320    22.8240 c          1 O46       0.598100
      4 C7           9.2640    -0.6080    22.9800 c6         1 O46       0.188700
      5 C8           8.9810    -1.6880    24.0480 c6         1 O46      -0.122900
      6 C10          7.0270    -1.2740    22.0080 c6         1 O46       0.152100
      7 C13         11.5410     0.2140    23.7100 ca         1 O46      -0.112000
      8 C15         13.5860    -0.3760    22.5660 ca         1 O46      -0.143000
      9 C17         11.4350    -1.1650    21.7510 ca         1 O46      -0.131000
     10 N            8.7340     0.6620    23.4930 ns         1 O46      -0.513900
     11 C            4.7720     3.0400    21.3160 ca         1 O46       0.136100
     12 O            4.4510     3.5140    20.0760 oh         1 O46      -0.534100
     13 C1           3.8480     2.3750    22.1210 ca         1 O46      -0.196000
     14 C11          8.4940    -1.0080    21.7040 c6         1 O46      -0.122900
     15 C12         10.7770    -0.5030    22.7860 ca         1 O46      -0.048300
     16 C14         12.9230     0.2790    23.6020 ca         1 O46      -0.086000
     17 C16         12.8140    -1.0840    21.6680 ca         1 O46       0.164000
     18 C18          6.0750     3.2430    21.7640 ca         1 O46      -0.124000
     19 C2           4.2410     1.9210    23.3740 ca         1 O46      -0.068000
     20 C3           5.5410     2.1200    23.8260 ca         1 O46      -0.150000
     21 C9           7.4920    -1.9750    24.2120 c6         1 O46       0.152100
     22 F           13.4340    -1.7350    20.6460 f          1 O46      -0.186000
     23 O1           9.3230     1.9980    21.7550 o          1 O46      -0.589100
     24 O2           6.8770    -2.3180    22.9730 os         1 O46      -0.456000
     25 H1           7.9680     2.8790    24.5500 hc         1 O46       0.072200
     26 H2           8.3130     3.8900    23.1340 hc         1 O46       0.072200
     27 H3           9.4910    -2.6020    23.7380 hc         1 O46       0.067950
     28 H4           9.4070    -1.3810    25.0070 hc         1 O46       0.067950
     29 H5           6.5290    -0.3660    22.3710 h1         1 O46       0.047950
     30 H6           6.5100    -1.6120    21.1110 h1         1 O46       0.047950
     31 H7          11.0460     0.7370    24.5170 ha         1 O46       0.114000
     32 H8          14.6620    -0.3380    22.4580 ha         1 O46       0.133000
     33 H9          10.9080    -1.7400    21.0050 ha         1 O46       0.133000
     34 H10          8.2440     0.6410    24.3730 hn         1 O46       0.311500
     35 H11          3.5270     3.3140    19.8770 ho         1 O46       0.463000
     36 H12          2.8350     2.2230    21.7670 ha         1 O46       0.116000
     37 H13          8.9200    -1.9240    21.2960 hc         1 O46       0.067950
     38 H14          8.5840    -0.2260    20.9520 hc         1 O46       0.067950
     39 H15         13.4950     0.8440    24.3270 ha         1 O46       0.117000
     40 H16          6.7800     3.7560    21.1210 ha         1 O46       0.142000
     41 H17          3.5240     1.4080    24.0030 ha         1 O46       0.115000
     42 H18          5.8400     1.7560    24.8010 ha         1 O46       0.108000
     43 H19          6.9690    -1.1160    24.6520 h1         1 O46       0.047950
     44 H20          7.3480    -2.8270    24.8760 h1         1 O46       0.047950
@<TRIPOS>BOND
     1     1     2 1   
     2     1    18 ar  
     3     1    20 ar  
     4     2     3 1   
     5     2    25 1   
     6     2    26 1   
     7     3    10 1   
     8     3    23 2   
     9     4     5 1   
    10     4    10 1   
    11     4    14 1   
    12     4    15 1   
    13     5    21 1   
    14     5    27 1   
    15     5    28 1   
    16     6    14 1   
    17     6    24 1   
    18     6    29 1   
    19     6    30 1   
    20     7    15 ar  
    21     7    16 ar  
    22     7    31 1   
    23     8    16 ar  
    24     8    17 ar  
    25     8    32 1   
    26     9    15 ar  
    27     9    17 ar  
    28     9    33 1   
    29    10    34 1   
    30    11    12 1   
    31    11    13 ar  
    32    11    18 ar  
    33    12    35 1   
    34    13    19 ar  
    35    13    36 1   
    36    14    37 1   
    37    14    38 1   
    38    16    39 1   
    39    17    22 1   
    40    18    40 1   
    41    19    20 ar  
    42    19    41 1   
    43    20    42 1   
    44    21    24 1   
    45    21    43 1   
    46    21    44 1   
@<TRIPOS>SUBSTRUCTURE
     1 O46         1 TEMP              0 ****  ****    0 ROOT
