@<TRIPOS>MOLECULE
O47
   45    46     1     0     0
SMALL
No Charge or Current Charge


@<TRIPOS>ATOM
      1 C1          -1.7900     1.8460    -0.3210 ca         1 O47      -0.215300
      2 C2          -2.7520     0.8780     0.0330 ca         1 O47      -0.001000
      3 C3          -2.3830    -0.4670     0.2310 ca         1 O47      -0.159600
      4 C4          -1.0240    -0.8290     0.1130 ca         1 O47      -0.011000
      5 C5          -0.0300     0.1180    -0.2490 cp         1 O47      -0.171500
      6 C6          -0.4440     1.4560    -0.4740 ca         1 O47      -0.030000
      7 C7          -2.2040     3.3010    -0.5700 c3         1 O47       0.360300
      8 F8          -2.4630     3.5200    -1.8790 f          1 O47      -0.111333
      9 F9          -3.3170     3.6480     0.1160 f          1 O47      -0.111333
     10 F10         -1.2400     4.1770    -0.2060 f          1 O47      -0.111333
     11 N11          1.6690    -1.5900    -0.6330 nb         1 O47      -0.149000
     12 C12          1.4100    -0.2870    -0.3930 cp         1 O47       0.179500
     13 C13          2.4860     0.6260    -0.2770 ca         1 O47      -0.200000
     14 C14          3.7960     0.1410    -0.4280 ca         1 O47       0.131300
     15 N15          4.0340    -1.1630    -0.6730 nb         1 O47      -0.177000
     16 C16          2.9600    -1.9800    -0.7660 ca         1 O47       0.088700
     17 C17          5.0020     1.0600    -0.3040 c3         1 O47      -0.133700
     18 C18          5.3950     1.3150     1.1670 c3         1 O47      -0.071400
     19 C19          6.6130     2.2480     1.3130 c3         1 O47      -0.091100
     20 C20         -3.4440    -1.4710     0.6240 c          1 O47       0.615700
     21 N21         -3.2810    -2.8280     0.2540 n          1 O47      -0.401800
     22 O22         -4.3920    -1.1250     1.3190 o          1 O47      -0.593100
     23 C23         -4.1820    -3.8500     0.8310 c3         1 O47       0.084800
     24 C24         -2.6290    -3.1960    -1.0260 c3         1 O47       0.084800
     25 C25          3.2440    -3.4280    -1.0340 ce         1 O47       0.362200
     26 N26          2.3130    -4.3250    -1.1430 n2         1 O47      -0.702100
     27 H2          -3.7980     1.1640     0.1380 ha         1 O47       0.149000
     28 H4          -0.7270    -1.8510     0.3330 ha         1 O47       0.155000
     29 H6           0.2870     2.2000    -0.7820 ha         1 O47       0.128000
     30 H13          2.3180     1.6760    -0.0580 ha         1 O47       0.138000
     31 H17          5.8610     0.6350    -0.8390 hc         1 O47       0.059200
     32 H17A         4.7840     2.0190    -0.7900 hc         1 O47       0.059200
     33 H18          4.5430     1.7540     1.7010 hc         1 O47       0.048700
     34 H18A         5.6180     0.3570     1.6540 hc         1 O47       0.048700
     35 H19          6.8540     2.3990     2.3720 hc         1 O47       0.035033
     36 H19A         7.4930     1.8180     0.8190 hc         1 O47       0.035033
     37 H19B         6.4070     3.2280     0.8650 hc         1 O47       0.035033
     38 H23         -5.1880    -3.7390     0.4070 h1         1 O47       0.045533
     39 H23A        -3.8060    -4.8570     0.6050 h1         1 O47       0.045533
     40 H23B        -4.2330    -3.7330     1.9210 h1         1 O47       0.045533
     41 H24         -1.6390    -3.6250    -0.8300 h1         1 O47       0.045533
     42 H24A        -3.2360    -3.9420    -1.5560 h1         1 O47       0.045533
     43 H24B        -2.5250    -2.3180    -1.6770 h1         1 O47       0.045533
     44 H25          4.2950    -3.7100    -1.1370 h4         1 O47      -0.009200
     45 HN26         2.7430    -5.2450    -1.3260 hn         1 O47       0.381400
@<TRIPOS>BOND
     1     1     2 ar  
     2     1     6 ar  
     3     1     7 1   
     4     2     3 ar  
     5     2    27 1   
     6     3     4 ar  
     7     3    20 1   
     8     4     5 ar  
     9     4    28 1   
    10     5     6 ar  
    11     5    12 1   
    12     6    29 1   
    13     7     8 1   
    14     7     9 1   
    15     7    10 1   
    16    11    12 ar  
    17    11    16 ar  
    18    12    13 ar  
    19    13    14 ar  
    20    13    30 1   
    21    14    15 ar  
    22    14    17 1   
    23    15    16 ar  
    24    16    25 1   
    25    17    18 1   
    26    17    31 1   
    27    17    32 1   
    28    18    19 1   
    29    18    33 1   
    30    18    34 1   
    31    19    35 1   
    32    19    36 1   
    33    19    37 1   
    34    20    21 1   
    35    20    22 2   
    36    21    23 1   
    37    21    24 1   
    38    23    38 1   
    39    23    39 1   
    40    23    40 1   
    41    24    41 1   
    42    24    42 1   
    43    24    43 1   
    44    25    26 2   
    45    25    44 1   
    46    26    45 1   
@<TRIPOS>SUBSTRUCTURE
     1 O47         1 TEMP              0 ****  ****    0 ROOT
