@<TRIPOS>MOLECULE
O47
   45    46     1     0     0
SMALL
abcg2


@<TRIPOS>ATOM
      1 C1          -1.8640     1.7450    -0.3460 ca         1 O47      -0.215300
      2 C2          -2.7840     0.7710    -0.0000 ca         1 O47      -0.001000
      3 C3          -2.3540    -0.5350     0.2190 ca         1 O47      -0.159600
      4 C4          -1.0070    -0.8430     0.1210 ca         1 O47      -0.011000
      5 C5          -0.0720     0.1410    -0.1970 cp         1 O47      -0.171500
      6 C6          -0.5120     1.4360    -0.4400 ca         1 O47      -0.030000
      7 C7          -2.2900     3.1530    -0.6290 c3         1 O47       0.360300
      8 F8          -1.9840     3.5170    -1.8820 f          1 O47      -0.111333
      9 F9          -3.6040     3.3320    -0.4770 f          1 O47      -0.111333
     10 F10         -1.6750     4.0240     0.1820 f          1 O47      -0.111333
     11 N11          1.6460    -1.5060    -0.4060 nb         1 O47      -0.149000
     12 C12          1.3600    -0.2150    -0.2840 cp         1 O47       0.179500
     13 C13          2.3750     0.7360    -0.2350 ca         1 O47      -0.200000
     14 C14          3.6850     0.2920    -0.3480 ca         1 O47       0.131300
     15 N15          3.9520    -1.0060    -0.4840 nb         1 O47      -0.177000
     16 C16          2.9230    -1.8400    -0.4970 ca         1 O47       0.088700
     17 C17          4.8440     1.2350    -0.2830 c3         1 O47      -0.133700
     18 C18          5.6490     1.0640     1.0070 c3         1 O47      -0.071400
     19 C19          6.8050     2.0500     1.0880 c3         1 O47      -0.091100
     20 C20         -3.3600    -1.5420     0.6890 c          1 O47       0.615700
     21 N21         -3.3570    -2.7550     0.1110 n          1 O47      -0.401800
     22 O22         -4.1200    -1.2310     1.5980 o          1 O47      -0.593100
     23 C23         -4.2060    -3.8030     0.6410 c3         1 O47       0.084800
     24 C24         -2.7220    -3.0740    -1.1530 c3         1 O47       0.084800
     25 C25          3.2760    -3.2740    -0.6310 ce         1 O47       0.362200
     26 N26          2.3950    -4.1770    -0.6440 n2         1 O47      -0.702100
     27 H2          -3.8360     1.0040     0.0910 ha         1 O47       0.149000
     28 H4          -0.6580    -1.8510     0.3080 ha         1 O47       0.155000
     29 H6           0.1980     2.2060    -0.7160 ha         1 O47       0.128000
     30 H13          2.1740     1.7890    -0.1010 ha         1 O47       0.138000
     31 H17          5.4950     1.0580    -1.1430 hc         1 O47       0.059200
     32 H17A         4.4840     2.2630    -0.3600 hc         1 O47       0.059200
     33 H18          4.9880     1.1970     1.8670 hc         1 O47       0.048700
     34 H18A         6.0270     0.0400     1.0620 hc         1 O47       0.048700
     35 H19          7.3750     1.9160     2.0070 hc         1 O47       0.035033
     36 H19A         7.4900     1.9250     0.2490 hc         1 O47       0.035033
     37 H19B         6.4440     3.0800     1.0700 hc         1 O47       0.035033
     38 H23         -5.1410    -3.8770     0.0810 h1         1 O47       0.045533
     39 H23A        -3.6850    -4.7570     0.5600 h1         1 O47       0.045533
     40 H23B        -4.4370    -3.6240     1.6860 h1         1 O47       0.045533
     41 H24         -1.8880    -3.7640    -1.0180 h1         1 O47       0.045533
     42 H24A        -3.4530    -3.5500    -1.8080 h1         1 O47       0.045533
     43 H24B        -2.3610    -2.1840    -1.6610 h1         1 O47       0.045533
     44 H25          4.3490    -3.4540    -0.7120 h4         1 O47      -0.009200
     45 HN26         2.8350    -5.0880    -0.7390 hn         1 O47       0.381400
@<TRIPOS>BOND
     1     1     2 ar  
     2     1     6 ar  
     3     1     7 1   
     4     2     3 ar  
     5     2    27 1   
     6     3     4 ar  
     7     3    20 1   
     8     4     5 ar  
     9     4    28 1   
    10     5     6 ar  
    11     5    12 1   
    12     6    29 1   
    13     7     8 1   
    14     7     9 1   
    15     7    10 1   
    16    11    12 ar  
    17    11    16 ar  
    18    12    13 ar  
    19    13    14 ar  
    20    13    30 1   
    21    14    15 ar  
    22    14    17 1   
    23    15    16 ar  
    24    16    25 1   
    25    17    18 1   
    26    17    31 1   
    27    17    32 1   
    28    18    19 1   
    29    18    33 1   
    30    18    34 1   
    31    19    35 1   
    32    19    36 1   
    33    19    37 1   
    34    20    21 1   
    35    20    22 2   
    36    21    23 1   
    37    21    24 1   
    38    23    38 1   
    39    23    39 1   
    40    23    40 1   
    41    24    41 1   
    42    24    42 1   
    43    24    43 1   
    44    25    26 2   
    45    25    44 1   
    46    26    45 1   
@<TRIPOS>SUBSTRUCTURE
     1 O47         1 TEMP              0 ****  ****    0 ROOT
