@<TRIPOS>MOLECULE
O48
   38    37     1     0     0
SMALL
No Charge or Current Charge


@<TRIPOS>ATOM
      1 C1           2.4920    -0.5130     0.1070 c3         1 O48       0.207600
      2 N1           5.5420    -0.2150    -1.5190 n8         1 O48      -1.058100
      3 O1           5.0290    -1.7110     0.3980 o          1 O48      -0.555500
      4 S1           5.0940    -0.2990     0.0250 s6         1 O48       1.401800
      5 C2           1.2140     0.2960    -0.1840 c3         1 O48      -0.083400
      6 O2           5.9300     0.6730     0.7220 o          1 O48      -0.555500
      7 C3          -0.0820    -0.4870     0.1250 c3         1 O48      -0.076400
      8 O3           3.6090     0.3270    -0.2180 os         1 O48      -0.569700
      9 C4          -1.3630     0.3250    -0.1660 c3         1 O48      -0.074400
     10 C5          -2.6580    -0.4580     0.1430 c3         1 O48      -0.074400
     11 C6          -3.9390     0.3540    -0.1480 c3         1 O48      -0.074400
     12 C7          -5.2340    -0.4280     0.1620 c3         1 O48      -0.074400
     13 C8          -6.5150     0.3840    -0.1290 c3         1 O48      -0.075400
     14 C9          -7.8100    -0.3980     0.1800 c3         1 O48      -0.074400
     15 C10         -9.0890     0.4110    -0.1100 c3         1 O48      -0.089100
     16 H1           2.5070    -0.8000     1.1670 h1         1 O48       0.053700
     17 H1A          2.4910    -1.4270    -0.5040 h1         1 O48       0.053700
     18 HN1          6.2840     0.4710    -1.4190 hn         1 O48       0.484500
     19 HN1A         4.7480     0.3330    -1.8410 hn         1 O48       0.484500
     20 H2           1.2320     1.2160     0.4130 hc         1 O48       0.059200
     21 H2A          1.2140     0.5950    -1.2390 hc         1 O48       0.059200
     22 H3          -0.0970    -1.4090    -0.4700 hc         1 O48       0.040200
     23 H3A         -0.0790    -0.7880     1.1810 hc         1 O48       0.040200
     24 H4          -1.3490     1.2470     0.4300 hc         1 O48       0.040700
     25 H4A         -1.3670     0.6260    -1.2210 hc         1 O48       0.040700
     26 H5          -2.6730    -1.3790    -0.4520 hc         1 O48       0.038200
     27 H5A         -2.6540    -0.7580     1.1990 hc         1 O48       0.038200
     28 H6          -3.9250     1.2760     0.4480 hc         1 O48       0.038200
     29 H6A         -3.9430     0.6550    -1.2030 hc         1 O48       0.038200
     30 H7          -5.2490    -1.3500    -0.4340 hc         1 O48       0.037200
     31 H7A         -5.2300    -0.7290     1.2170 hc         1 O48       0.037200
     32 H8          -6.5010     1.3050     0.4660 hc         1 O48       0.037200
     33 H8A         -6.5200     0.6840    -1.1840 hc         1 O48       0.037200
     34 H9          -7.8300    -1.3200    -0.4150 hc         1 O48       0.036700
     35 H9A         -7.8110    -0.6990     1.2350 hc         1 O48       0.036700
     36 H10         -9.9800    -0.1840     0.1240 hc         1 O48       0.031700
     37 H10A        -9.1160     1.3240     0.4980 hc         1 O48       0.031700
     38 H10B        -9.1360     0.6970    -1.1680 hc         1 O48       0.031700
@<TRIPOS>BOND
     1     1     5 1   
     2     1     8 1   
     3     1    16 1   
     4     1    17 1   
     5     2     4 1   
     6     2    18 1   
     7     2    19 1   
     8     3     4 2   
     9     4     6 2   
    10     4     8 1   
    11     5     7 1   
    12     5    20 1   
    13     5    21 1   
    14     7     9 1   
    15     7    22 1   
    16     7    23 1   
    17     9    10 1   
    18     9    24 1   
    19     9    25 1   
    20    10    11 1   
    21    10    26 1   
    22    10    27 1   
    23    11    12 1   
    24    11    28 1   
    25    11    29 1   
    26    12    13 1   
    27    12    30 1   
    28    12    31 1   
    29    13    14 1   
    30    13    32 1   
    31    13    33 1   
    32    14    15 1   
    33    14    34 1   
    34    14    35 1   
    35    15    36 1   
    36    15    37 1   
    37    15    38 1   
@<TRIPOS>SUBSTRUCTURE
     1 O48         1 TEMP              0 ****  ****    0 ROOT
