@<TRIPOS>MOLECULE
O48
   38    37     1     0     0
SMALL
abcg2


@<TRIPOS>ATOM
      1 C1           2.4210    -0.3280     0.1860 c3         1 O48       0.207600
      2 N1           4.9750    -0.5960    -1.5400 n8         1 O48      -1.058100
      3 O1           5.1940    -1.1490     0.8630 o          1 O48      -0.555500
      4 S1           5.0120    -0.0100    -0.0110 s6         1 O48       1.401800
      5 C2           1.1640     0.4940     0.0110 c3         1 O48      -0.083400
      6 O2           5.8560     1.1520     0.1400 o          1 O48      -0.555500
      7 C3          -0.0820    -0.3770     0.1330 c3         1 O48      -0.076400
      8 O3           3.5460     0.5810     0.1380 os         1 O48      -0.569700
      9 C4          -1.3670     0.4200    -0.0490 c3         1 O48      -0.074400
     10 C5          -2.6240    -0.4270     0.1050 c3         1 O48      -0.074400
     11 C6          -3.9090     0.3710    -0.0780 c3         1 O48      -0.074400
     12 C7          -5.1690    -0.4690     0.0870 c3         1 O48      -0.074400
     13 C8          -6.4520     0.3300    -0.1000 c3         1 O48      -0.075400
     14 C9          -7.7150    -0.5070     0.0620 c3         1 O48      -0.074400
     15 C10         -8.9900     0.3020    -0.1340 c3         1 O48      -0.089100
     16 H1           2.4220    -0.8440     1.1490 h1         1 O48       0.053700
     17 H1A          2.5110    -1.0710    -0.6100 h1         1 O48       0.053700
     18 HN1          5.6310    -1.3540    -1.6860 hn         1 O48       0.484500
     19 HN1A         5.0670     0.1180    -2.2550 hn         1 O48       0.484500
     20 H2           1.1330     1.2830     0.7680 hc         1 O48       0.059200
     21 H2A          1.1800     0.9840    -0.9670 hc         1 O48       0.059200
     22 H3          -0.0450    -1.1810    -0.6090 hc         1 O48       0.040200
     23 H3A         -0.0920    -0.8640     1.1130 hc         1 O48       0.040200
     24 H4          -1.3910     1.2390     0.6790 hc         1 O48       0.040700
     25 H4A         -1.3650     0.8930    -1.0370 hc         1 O48       0.040700
     26 H5          -2.6000    -1.2480    -0.6190 hc         1 O48       0.038200
     27 H5A         -2.6250    -0.8960     1.0950 hc         1 O48       0.038200
     28 H6          -3.9270     1.1980     0.6410 hc         1 O48       0.038200
     29 H6A         -3.9090     0.8350    -1.0710 hc         1 O48       0.038200
     30 H7          -5.1500    -1.2970    -0.6310 hc         1 O48       0.037200
     31 H7A         -5.1690    -0.9310     1.0810 hc         1 O48       0.037200
     32 H8          -6.4720     1.1580     0.6170 hc         1 O48       0.037200
     33 H8A         -6.4500     0.7920    -1.0940 hc         1 O48       0.037200
     34 H9          -7.6950    -1.3350    -0.6540 hc         1 O48       0.036700
     35 H9A         -7.7200    -0.9670     1.0550 hc         1 O48       0.036700
     36 H10         -9.8810    -0.3170    -0.0270 hc         1 O48       0.031700
     37 H10A        -9.0600     1.1120     0.5950 hc         1 O48       0.031700
     38 H10B        -9.0190     0.7540    -1.1280 hc         1 O48       0.031700
@<TRIPOS>BOND
     1     1     5 1   
     2     1     8 1   
     3     1    16 1   
     4     1    17 1   
     5     2     4 1   
     6     2    18 1   
     7     2    19 1   
     8     3     4 2   
     9     4     6 2   
    10     4     8 1   
    11     5     7 1   
    12     5    20 1   
    13     5    21 1   
    14     7     9 1   
    15     7    22 1   
    16     7    23 1   
    17     9    10 1   
    18     9    24 1   
    19     9    25 1   
    20    10    11 1   
    21    10    26 1   
    22    10    27 1   
    23    11    12 1   
    24    11    28 1   
    25    11    29 1   
    26    12    13 1   
    27    12    30 1   
    28    12    31 1   
    29    13    14 1   
    30    13    32 1   
    31    13    33 1   
    32    14    15 1   
    33    14    34 1   
    34    14    35 1   
    35    15    36 1   
    36    15    37 1   
    37    15    38 1   
@<TRIPOS>SUBSTRUCTURE
     1 O48         1 TEMP              0 ****  ****    0 ROOT
