@<TRIPOS>MOLECULE
O49
   54    56     1     0     0
SMALL
abcg2


@<TRIPOS>ATOM
      1 C10        -16.1470    21.4520    -2.5160 ca         1 O49      -0.161500
      2 C13        -18.4940    20.1000    -1.9130 ca         1 O49      -0.068500
      3 C14        -17.3450    19.8500    -1.1700 ca         1 O49      -0.161500
      4 C15        -14.7710    18.0860    -0.1970 c6         1 O49      -0.113400
      5 C16        -13.6020    17.9050    -1.1560 c6         1 O49       0.155100
      6 C17        -12.3190    19.5620    -0.0780 c6         1 O49       0.155100
      7 C18        -13.4340    19.8560     0.9180 c6         1 O49      -0.113400
      8 C20        -18.5280    21.8060     2.2850 c6         1 O49      -0.091900
      9 O1         -19.5780    25.9910     3.0550 o          1 O49      -0.584100
     10 C1         -20.4420    25.1260     2.9220 c          1 O49       0.590100
     11 C2         -21.6620    25.0920     3.8270 c3         1 O49       0.038600
     12 N1         -20.3950    24.1510     2.0010 ns         1 O49      -0.499900
     13 C4         -18.1030    23.1880     1.7870 c6         1 O49      -0.088700
     14 C5         -16.9340    23.0580     0.8100 c6         1 O49      -0.091900
     15 C6         -15.7960    22.2180     1.3880 c6         1 O49       0.096500
     16 N2         -16.2840    20.9120     1.8420 n          1 O49      -0.401800
     17 C7         -15.8890    19.6840     1.4470 c          1 O49       0.583100
     18 O2         -16.3300    18.6550     1.9680 o          1 O49      -0.612100
     19 C8         -14.8180    19.5270     0.3330 c6         1 O49       0.120000
     20 C9         -16.1670    20.5360    -1.4620 ca         1 O49       0.143100
     21 C11        -17.2900    21.7010    -3.2560 ca         1 O49      -0.068500
     22 C12        -18.4630    21.0240    -2.9430 ca         1 O49       0.084000
     23 CL2        -19.9200    21.3470    -3.8640 cl         1 O49      -0.212000
     24 O4         -12.3560    18.2120    -0.5310 os         1 O49      -0.454000
     25 C19        -17.3420    21.0320     2.8510 c6         1 O49       0.096500
     26 H1         -15.2270    21.9800    -2.7310 ha         1 O49       0.135000
     27 H2         -19.4100    19.5750    -1.6770 ha         1 O49       0.132000
     28 H3         -17.4030    19.1350    -0.3650 ha         1 O49       0.135000
     29 H4         -15.6990    17.8220    -0.7020 hc         1 O49       0.071700
     30 H5         -14.6570    17.4110     0.6480 hc         1 O49       0.071700
     31 H6         -13.7300    18.5330    -2.0460 h1         1 O49       0.053700
     32 H7         -13.5380    16.8660    -1.4760 h1         1 O49       0.053700
     33 H8         -11.3480    19.7040     0.3960 h1         1 O49       0.053700
     34 H9         -12.3890    20.2410    -0.9360 h1         1 O49       0.053700
     35 H10        -13.2990    19.2400     1.8100 hc         1 O49       0.071700
     36 H11        -13.3810    20.9000     1.2240 hc         1 O49       0.071700
     37 H12        -19.2930    21.8960     3.0590 hc         1 O49       0.052200
     38 H13        -18.9630    21.2350     1.4580 hc         1 O49       0.052200
     39 H14        -21.9280    26.1000     4.1270 h1         1 O49       0.085700
     40 H15        -22.5110    24.5800     3.3850 h1         1 O49       0.085700
     41 CL1        -21.2370    24.1870     5.3400 cl         1 O49      -0.257000
     42 H17        -21.1340    23.4670     1.9880 hn         1 O49       0.316500
     43 H18        -18.9040    24.9200     0.7790 h1         1 O49       0.060200
     44 H19        -19.6080    23.3890     0.2530 h1         1 O49       0.060200
     45 H20        -17.7670    23.7720     2.6510 hc         1 O49       0.069700
     46 H21        -16.5410    24.0450     0.5540 hc         1 O49       0.052200
     47 H22        -17.2850    22.5990    -0.1170 hc         1 O49       0.052200
     48 H23        -15.0100    22.0990     0.6560 h1         1 O49       0.062700
     49 H24        -15.3720    22.7260     2.2610 h1         1 O49       0.062700
     50 H25        -17.2700    22.4200    -4.0640 ha         1 O49       0.132000
     51 H26        -17.6310    20.0360     3.1660 h1         1 O49       0.062700
     52 H27        -16.9270    21.5610     3.7160 h1         1 O49       0.062700
     53 O3         -14.9990    20.4420    -0.7670 os         1 O49      -0.363100
     54 C3         -19.2540    23.9450     1.1220 c3         1 O49       0.109000
@<TRIPOS>BOND
     1     1    20 ar  
     2     1    21 ar  
     3     1    26 1   
     4     2     3 ar  
     5     2    22 ar  
     6     2    27 1   
     7     3    20 ar  
     8     3    28 1   
     9     4     5 1   
    10     4    19 1   
    11     4    29 1   
    12     4    30 1   
    13     5    24 1   
    14     5    31 1   
    15     5    32 1   
    16     6     7 1   
    17     6    24 1   
    18     6    33 1   
    19     6    34 1   
    20     7    19 1   
    21     7    35 1   
    22     7    36 1   
    23     8    13 1   
    24     8    25 1   
    25     8    37 1   
    26     8    38 1   
    27     9    10 2   
    28    10    11 1   
    29    10    12 1   
    30    11    39 1   
    31    11    40 1   
    32    11    41 1   
    33    12    42 1   
    34    12    54 1   
    35    13    14 1   
    36    13    45 1   
    37    13    54 1   
    38    14    15 1   
    39    14    46 1   
    40    14    47 1   
    41    15    16 1   
    42    15    48 1   
    43    15    49 1   
    44    16    17 1   
    45    16    25 1   
    46    17    18 2   
    47    17    19 1   
    48    19    53 1   
    49    20    53 1   
    50    21    22 ar  
    51    21    50 1   
    52    22    23 1   
    53    25    51 1   
    54    25    52 1   
    55    43    54 1   
    56    44    54 1   
@<TRIPOS>SUBSTRUCTURE
     1 O49         1 TEMP              0 ****  ****    0 ROOT
