@<TRIPOS>MOLECULE
O49
   54    56     1     0     0
SMALL
No Charge or Current Charge


@<TRIPOS>ATOM
      1 C10        -16.1150    21.5720    -2.5760 ca         1 O49      -0.161500
      2 C13        -18.3340    19.8570    -2.5800 ca         1 O49      -0.068500
      3 C14        -17.1860    19.5180    -1.8410 ca         1 O49      -0.161500
      4 C15        -14.6570    17.9270    -0.0080 c6         1 O49      -0.113400
      5 C16        -13.3360    17.5960    -0.7390 c6         1 O49       0.155100
      6 C17        -12.2680    19.5730     0.1240 c6         1 O49       0.155100
      7 C18        -13.5490    20.0010     0.8800 c6         1 O49      -0.113400
      8 C20        -18.4990    21.8710     2.4650 c6         1 O49      -0.091900
      9 O1         -19.4720    25.9860     3.2910 o          1 O49      -0.584100
     10 C1         -20.3890    25.1750     3.2870 c          1 O49       0.590100
     11 C2         -21.5090    25.1810     4.3360 c3         1 O49       0.038600
     12 N1         -20.4880    24.1790     2.3360 ns         1 O49      -0.499900
     13 C4         -18.2110    23.2370     1.7840 c6         1 O49      -0.088700
     14 C5         -17.1950    23.0380     0.6310 c6         1 O49      -0.091900
     15 C6         -15.9140    22.3190     1.1190 c6         1 O49       0.096500
     16 N2         -16.2330    21.0210     1.7780 n          1 O49      -0.401800
     17 C7         -16.1230    19.7830     1.0930 c          1 O49       0.583100
     18 O2         -17.0420    18.9740     1.1860 o          1 O49      -0.612100
     19 C8         -14.8550    19.4710     0.1870 c6         1 O49       0.120000
     20 C9         -16.0740    20.3880    -1.8190 ca         1 O49       0.143100
     21 C11        -17.2620    21.9120    -3.3150 ca         1 O49      -0.068500
     22 C12        -18.3730    21.0550    -3.3110 ca         1 O49       0.084000
     23 Cl2        -19.8120    21.4780    -4.2300 cl         1 O49      -0.212000
     24 O4         -12.2270    18.1380     0.0020 os         1 O49      -0.454000
     25 C19        -17.1860    21.1810     2.9090 c6         1 O49       0.096500
     26 H1         -15.2550    22.2370    -2.5760 ha         1 O49       0.135000
     27 H2         -19.1920    19.1890    -2.5900 ha         1 O49       0.132000
     28 H3         -17.1810    18.5790    -1.3040 ha         1 O49       0.135000
     29 H4         -15.4890    17.4800    -0.5620 hc         1 O49       0.071700
     30 H5         -14.6510    17.4310     0.9720 hc         1 O49       0.071700
     31 H6         -13.3400    18.0150    -1.7560 h1         1 O49       0.053700
     32 H7         -13.2140    16.5060    -0.8190 h1         1 O49       0.053700
     33 H8         -11.3780    19.9100     0.6740 h1         1 O49       0.053700
     34 H9         -12.2400    20.0270    -0.8780 h1         1 O49       0.053700
     35 H10        -13.4990    19.6200     1.9090 hc         1 O49       0.071700
     36 H11        -13.5420    21.0920     0.9650 hc         1 O49       0.071700
     37 H12        -19.1480    22.0060     3.3400 hc         1 O49       0.052200
     38 H13        -19.0390    21.2120     1.7710 hc         1 O49       0.052200
     39 H14        -21.4290    26.0950     4.9370 h1         1 O49       0.085700
     40 H15        -22.4780    25.1650     3.8240 h1         1 O49       0.085700
     41 Cl1        -21.4380    23.7460     5.4660 cl         1 O49      -0.257000
     42 H17        -21.2760    23.5470     2.4200 hn         1 O49       0.316500
     43 H18        -19.2420    24.8910     0.8070 h1         1 O49       0.060200
     44 H19        -19.9750    23.3040     0.5060 h1         1 O49       0.060200
     45 H20        -17.7620    23.9110     2.5270 hc         1 O49       0.069700
     46 H21        -16.9260    24.0070     0.1900 hc         1 O49       0.052200
     47 H22        -17.6570    22.4470    -0.1730 hc         1 O49       0.052200
     48 H23        -15.2510    22.1830     0.2570 h1         1 O49       0.062700
     49 H24        -15.3840    22.9630     1.8360 h1         1 O49       0.062700
     50 H25        -17.2890    22.8360    -3.8870 ha         1 O49       0.132000
     51 H26        -17.4140    20.2040     3.3590 h1         1 O49       0.062700
     52 H27        -16.7070    21.7860     3.6920 h1         1 O49       0.062700
     53 O3         -14.9120    20.1420    -1.1110 os         1 O49      -0.363100
     54 C3         -19.5070    23.9340     1.2750 c3         1 O49       0.109000
@<TRIPOS>BOND
     1     1    20 ar  
     2     1    21 ar  
     3     1    26 1   
     4     2     3 ar  
     5     2    22 ar  
     6     2    27 1   
     7     3    20 ar  
     8     3    28 1   
     9     4     5 1   
    10     4    19 1   
    11     4    29 1   
    12     4    30 1   
    13     5    24 1   
    14     5    31 1   
    15     5    32 1   
    16     6     7 1   
    17     6    24 1   
    18     6    33 1   
    19     6    34 1   
    20     7    19 1   
    21     7    35 1   
    22     7    36 1   
    23     8    13 1   
    24     8    25 1   
    25     8    37 1   
    26     8    38 1   
    27     9    10 2   
    28    10    11 1   
    29    10    12 1   
    30    11    39 1   
    31    11    40 1   
    32    11    41 1   
    33    12    42 1   
    34    12    54 1   
    35    13    14 1   
    36    13    45 1   
    37    13    54 1   
    38    14    15 1   
    39    14    46 1   
    40    14    47 1   
    41    15    16 1   
    42    15    48 1   
    43    15    49 1   
    44    16    17 1   
    45    16    25 1   
    46    17    18 2   
    47    17    19 1   
    48    19    53 1   
    49    20    53 1   
    50    21    22 ar  
    51    21    50 1   
    52    22    23 1   
    53    25    51 1   
    54    25    52 1   
    55    43    54 1   
    56    44    54 1   
@<TRIPOS>SUBSTRUCTURE
     1 O49         1 TEMP              0 ****  ****    0 ROOT
