@<TRIPOS>MOLECULE
O4A
   47    51     1     0     0
SMALL
No Charge or Current Charge


@<TRIPOS>ATOM
      1 C2           3.2460    -0.9060     0.1530 cc         1 O4A      -0.060000
      2 C3           3.2860     0.5040    -0.2360 ca         1 O4A      -0.083000
      3 C11         -4.1960     0.2530     0.7100 ca         1 O4A       0.086100
      4 C12         -2.8880    -0.2300     0.5420 ca         1 O4A      -0.130000
      5 C13          5.4270    -0.5960     1.3810 c6         1 O4A       0.255900
      6 C14          2.1970     1.1870    -0.8180 ca         1 O4A      -0.067000
      7 C16         -5.1390     0.1320    -0.3390 ca         1 O4A       0.031100
      8 C17         -2.4980    -0.8210    -0.6820 ca         1 O4A      -0.022000
      9 C21          4.6230     2.5440    -0.4080 ca         1 O4A      -0.137000
     10 C22         -4.7520    -0.4380    -1.5600 ca         1 O4A      -0.078000
     11 C23          2.3170     2.5380    -1.1940 ca         1 O4A      -0.104300
     12 C24         -3.4370    -0.9100    -1.7280 ca         1 O4A      -0.168000
     13 C25          3.5350     3.2140    -0.9900 ca         1 O4A      -0.072000
     14 C26         -5.7720     1.6100     1.9380 c6         1 O4A       0.117600
     15 C27         -6.8800     0.8590     1.1690 c6         1 O4A       0.117600
     16 C28          1.1320     3.2630    -1.8150 c3         1 O4A      -0.041800
     17 C5           4.2630    -1.4100     0.8840 cd         1 O4A      -0.250300
     18 C7           3.9870    -2.7740     1.0920 cd         1 O4A       0.278900
     19 C8          -0.0820    -1.4930    -0.1110 c          1 O4A       0.584100
     20 C9           4.5000     1.2020    -0.0170 ca         1 O4A       0.153100
     21 N1           2.3860    -1.9840    -0.0680 na         1 O4A       0.155800
     22 N15         -1.1900    -1.3210    -0.9320 ns         1 O4A      -0.146000
     23 N4           2.8550    -3.1530     0.5150 nc         1 O4A      -0.512800
     24 O10          5.6030     0.5720     0.5390 os         1 O4A      -0.349100
     25 O18         -4.5470     0.8450     1.9070 os         1 O4A      -0.324100
     26 O19         -6.4380     0.5750    -0.1770 os         1 O4A      -0.328100
     27 O20         -0.0770    -1.2450     1.0900 o          1 O4A      -0.542100
     28 H33          5.2320    -0.2600     2.4100 h1         1 O4A       0.061200
     29 H34          6.3570    -1.1830     1.3840 h1         1 O4A       0.061200
     30 H35          1.2500     0.6880    -0.9790 ha         1 O4A       0.106000
     31 H37          5.5630     3.0670    -0.2520 ha         1 O4A       0.130000
     32 H38         -5.4710    -0.5220    -2.3720 ha         1 O4A       0.129000
     33 H39         -3.1520    -1.3540    -2.6790 ha         1 O4A       0.113000
     34 H40          3.6380     4.2580    -1.2800 ha         1 O4A       0.116000
     35 H42         -5.5950     2.5860     1.4640 h1         1 O4A       0.068700
     36 H41         -6.0700     1.7810     2.9810 h1         1 O4A       0.068700
     37 H44         -7.1020    -0.0890     1.6790 h1         1 O4A       0.067700
     38 H43         -7.8020     1.4560     1.1320 h1         1 O4A       0.067700
     39 H46          0.4600     3.6470    -1.0390 hc         1 O4A       0.041700
     40 H47          1.4560     4.1130    -2.4280 hc         1 O4A       0.041700
     41 H45          0.5510     2.5950    -2.4610 hc         1 O4A       0.041700
     42 H31          4.5750    -3.5000     1.6410 h4         1 O4A       0.041100
     43 H36         -1.0390    -1.5940    -1.8950 hn         1 O4A       0.149000
     44 C6           1.1470    -2.0210    -0.8580 c3         1 O4A      -0.005400
     45 H32         -2.1940    -0.1190     1.3680 ha         1 O4A       0.164000
     46 H29          0.9370    -3.0540    -1.1560 h1         1 O4A       0.086700
     47 H30          1.2880    -1.4330    -1.7720 h1         1 O4A       0.086700
@<TRIPOS>BOND
     1     1     2 1   
     2     1    17 2   
     3     1    21 1   
     4     2     6 ar  
     5     2    20 ar  
     6     3     4 ar  
     7     3     7 ar  
     8     3    25 1   
     9     4     8 ar  
    10     4    45 1   
    11     5    17 1   
    12     5    24 1   
    13     5    28 1   
    14     5    29 1   
    15     6    11 ar  
    16     6    30 1   
    17     7    10 ar  
    18     7    26 1   
    19     8    12 ar  
    20     8    22 1   
    21     9    13 ar  
    22     9    20 ar  
    23     9    31 1   
    24    10    12 ar  
    25    10    32 1   
    26    11    13 ar  
    27    11    16 1   
    28    12    33 1   
    29    13    34 1   
    30    14    15 1   
    31    14    25 1   
    32    14    35 1   
    33    14    36 1   
    34    15    26 1   
    35    15    37 1   
    36    15    38 1   
    37    16    39 1   
    38    16    40 1   
    39    16    41 1   
    40    17    18 1   
    41    18    23 2   
    42    18    42 1   
    43    19    22 1   
    44    19    27 2   
    45    19    44 1   
    46    20    24 1   
    47    21    23 1   
    48    21    44 1   
    49    22    43 1   
    50    44    46 1   
    51    44    47 1   
@<TRIPOS>SUBSTRUCTURE
     1 O4A         1 TEMP              0 ****  ****    0 ROOT
