@<TRIPOS>MOLECULE
O4A
   47    51     1     0     0
SMALL
bcc


@<TRIPOS>ATOM
      1 C2           3.1190    -0.8850     0.2220 cc         1 O4A      -0.009300
      2 C3           3.1960     0.4690    -0.2920 ca         1 O4A      -0.083000
      3 C11         -4.1590     0.1280     0.7970 ca         1 O4A       0.086100
      4 C12         -2.8560    -0.3130     0.5950 ca         1 O4A      -0.148000
      5 C13          5.1520    -0.4730     1.5640 c6         1 O4A       0.232700
      6 C14          2.1940     1.1760    -0.9510 ca         1 O4A      -0.085000
      7 C16         -5.0450     0.2540    -0.2750 ca         1 O4A       0.031100
      8 C17         -2.4210    -0.6280    -0.6880 ca         1 O4A       0.070600
      9 C21          4.6590     2.3740    -0.5660 ca         1 O4A      -0.155000
     10 C22         -4.5960    -0.0520    -1.5520 ca         1 O4A      -0.096000
     11 C23          2.3980     2.4640    -1.4330 ca         1 O4A      -0.104300
     12 C24         -3.3000    -0.4820    -1.7630 ca         1 O4A      -0.186000
     13 C25          3.6480     3.0450    -1.2390 ca         1 O4A      -0.090000
     14 C26         -5.7320     1.1750     2.1630 c6         1 O4A       0.094400
     15 C27         -6.7790     0.6030     1.2370 c6         1 O4A       0.094400
     16 C28          1.2890     3.2110    -2.1150 c3         1 O4A      -0.041800
     17 C5           4.0600    -1.3670     1.1010 cd         1 O4A      -0.315600
     18 C7           3.6890    -2.6960     1.3340 cd         1 O4A       0.344200
     19 C8          -0.0970    -1.3340    -0.1520 c          1 O4A       0.651100
     20 C9           4.4400     1.0930    -0.0820 ca         1 O4A       0.153100
     21 N1           2.2760    -1.9090    -0.0370 na         1 O4A       0.134400
     22 N15         -1.1290    -1.0870    -0.9860 ns         1 O4A      -0.472100
     23 N4           2.6060    -3.0060     0.6460 nc         1 O4A      -0.512800
     24 O10          5.4700     0.4610     0.5310 os         1 O4A      -0.325900
     25 O18         -4.5270     0.4300     2.0630 os         1 O4A      -0.300900
     26 O19         -6.3260     0.6630    -0.1070 os         1 O4A      -0.304900
     27 O20         -0.0900    -1.1330     1.0460 o          1 O4A      -0.542100
     28 H33          4.8670     0.0710     2.4720 h1         1 O4A       0.061200
     29 H34          6.0710    -1.0170     1.7770 h1         1 O4A       0.061200
     30 H35          1.2220     0.7280    -1.1040 ha         1 O4A       0.124000
     31 H37          5.6240     2.8420    -0.4180 ha         1 O4A       0.148000
     32 H38         -5.2760     0.0490    -2.3890 ha         1 O4A       0.147000
     33 H39         -2.9740    -0.7140    -2.7690 ha         1 O4A       0.131000
     34 H40          3.8390     4.0450    -1.6090 ha         1 O4A       0.134000
     35 H42         -5.5440     2.2270     1.9230 h1         1 O4A       0.068700
     36 H41         -6.0640     1.1120     3.1990 h1         1 O4A       0.068700
     37 H44         -7.0070    -0.4320     1.5130 h1         1 O4A       0.067700
     38 H43         -7.6970     1.1860     1.2950 h1         1 O4A       0.067700
     39 H46          0.6630     3.7370    -1.3910 hc         1 O4A       0.041700
     40 H47          1.6790     3.9570    -2.8080 hc         1 O4A       0.041700
     41 H45          0.6400     2.5390    -2.6760 hc         1 O4A       0.041700
     42 H31          4.1620    -3.4300     1.9680 h4         1 O4A       0.041100
     43 H36         -0.9740    -1.2960    -1.9610 hn         1 O4A       0.315500
     44 C6           1.1120    -1.9280    -0.8700 c3         1 O4A      -0.034700
     45 H32         -2.2060    -0.3960     1.4510 ha         1 O4A       0.182000
     46 H29          0.8980    -2.9680    -1.1200 h1         1 O4A       0.086700
     47 H30          1.3150    -1.4140    -1.8110 h1         1 O4A       0.086700
@<TRIPOS>BOND
     1     1     2 1   
     2     1    17 2   
     3     1    21 1   
     4     2     6 ar  
     5     2    20 ar  
     6     3     4 ar  
     7     3     7 ar  
     8     3    25 1   
     9     4     8 ar  
    10     4    45 1   
    11     5    17 1   
    12     5    24 1   
    13     5    28 1   
    14     5    29 1   
    15     6    11 ar  
    16     6    30 1   
    17     7    10 ar  
    18     7    26 1   
    19     8    12 ar  
    20     8    22 1   
    21     9    13 ar  
    22     9    20 ar  
    23     9    31 1   
    24    10    12 ar  
    25    10    32 1   
    26    11    13 ar  
    27    11    16 1   
    28    12    33 1   
    29    13    34 1   
    30    14    15 1   
    31    14    25 1   
    32    14    35 1   
    33    14    36 1   
    34    15    26 1   
    35    15    37 1   
    36    15    38 1   
    37    16    39 1   
    38    16    40 1   
    39    16    41 1   
    40    17    18 1   
    41    18    23 2   
    42    18    42 1   
    43    19    22 1   
    44    19    27 2   
    45    19    44 1   
    46    20    24 1   
    47    21    23 1   
    48    21    44 1   
    49    22    43 1   
    50    44    46 1   
    51    44    47 1   
@<TRIPOS>SUBSTRUCTURE
     1 O4A         1 TEMP              0 ****  ****    0 ROOT
