@<TRIPOS>MOLECULE
O4B
   42    42     1     0     0
SMALL
No Charge or Current Charge


@<TRIPOS>ATOM
      1 CAA         -2.6770     2.6010     0.3760 c3         1 O4B       0.163517
      2 OAM         -2.6700     1.2670    -0.1700 os         1 O4B      -0.423833
      3 CAC         -3.6890     0.3990     0.3640 c3         1 O4B       0.163517
      4 CAD         -3.5670    -0.9950    -0.2990 c3         1 O4B       0.163517
      5 OAO         -2.3950    -1.6590     0.2130 os         1 O4B      -0.423833
      6 CAG         -2.1660    -2.9720    -0.3350 c3         1 O4B       0.163517
      7 CAH         -0.8820    -3.5670     0.2920 c3         1 O4B       0.163517
      8 OAQ          0.2660    -2.8810    -0.2450 os         1 O4B      -0.423833
      9 CAK          1.5310    -3.3430     0.2680 c3         1 O4B       0.163517
     10 CAL          2.6720    -2.5230    -0.3820 c3         1 O4B       0.163517
     11 OAR          2.6660    -1.1890     0.1640 os         1 O4B      -0.423833
     12 CAJ          3.6850    -0.3210    -0.3690 c3         1 O4B       0.163517
     13 CAI          3.5620     1.0720     0.2930 c3         1 O4B       0.163517
     14 OAP          2.3900     1.7370    -0.2190 os         1 O4B      -0.423833
     15 CAF          2.1620     3.0500     0.3290 c3         1 O4B       0.163517
     16 CAE          0.8770     3.6440    -0.2970 c3         1 O4B       0.163517
     17 OAN         -0.2710     2.9580     0.2390 os         1 O4B      -0.423833
     18 CAB         -1.5360     3.4200    -0.2740 c3         1 O4B       0.163517
     19 HAA1        -3.6340     3.0940     0.1600 h1         1 O4B       0.024492
     20 HAA2        -2.5410     2.5810     1.4660 h1         1 O4B       0.024492
     21 HAB1        -1.5820     3.3120    -1.3660 h1         1 O4B       0.024492
     22 HAB2        -1.6790     4.4810    -0.0290 h1         1 O4B       0.024492
     23 HAC1        -3.5910     0.2980     1.4530 h1         1 O4B       0.024492
     24 HAC2        -4.6850     0.8070     0.1470 h1         1 O4B       0.024492
     25 HAD1        -4.4660    -1.5780    -0.0640 h1         1 O4B       0.024492
     26 HAD2        -3.5100    -0.8790    -1.3890 h1         1 O4B       0.024492
     27 HAG1        -3.0120    -3.6320    -0.1010 h1         1 O4B       0.024492
     28 HAG2        -2.0570    -2.9300    -1.4270 h1         1 O4B       0.024492
     29 HAH1        -0.9250    -3.4670     1.3840 h1         1 O4B       0.024492
     30 HAH2        -0.8320    -4.6360     0.0480 h1         1 O4B       0.024492
     31 HAK1         1.5770    -3.2350     1.3600 h1         1 O4B       0.024492
     32 HAK2         1.6740    -4.4030     0.0240 h1         1 O4B       0.024492
     33 HAL1         3.6290    -3.0160    -0.1660 h1         1 O4B       0.024492
     34 HAL2         2.5360    -2.5040    -1.4710 h1         1 O4B       0.024492
     35 HAJ1         4.6810    -0.7290    -0.1530 h1         1 O4B       0.024492
     36 HAJ2         3.5870    -0.2210    -1.4580 h1         1 O4B       0.024492
     37 HAI1         3.5050     0.9570     1.3840 h1         1 O4B       0.024492
     38 HAI2         4.4610     1.6560     0.0580 h1         1 O4B       0.024492
     39 HAF1         2.0530     3.0080     1.4210 h1         1 O4B       0.024492
     40 HAF2         3.0070     3.7100     0.0950 h1         1 O4B       0.024492
     41 HAE1         0.8270     4.7130    -0.0540 h1         1 O4B       0.024492
     42 HAE2         0.9210     3.5440    -1.3900 h1         1 O4B       0.024492
@<TRIPOS>BOND
     1     1     2 1   
     2     1    18 1   
     3     1    19 1   
     4     1    20 1   
     5     2     3 1   
     6     3     4 1   
     7     3    23 1   
     8     3    24 1   
     9     4     5 1   
    10     4    25 1   
    11     4    26 1   
    12     5     6 1   
    13     6     7 1   
    14     6    27 1   
    15     6    28 1   
    16     7     8 1   
    17     7    29 1   
    18     7    30 1   
    19     8     9 1   
    20     9    10 1   
    21     9    31 1   
    22     9    32 1   
    23    10    11 1   
    24    10    33 1   
    25    10    34 1   
    26    11    12 1   
    27    12    13 1   
    28    12    35 1   
    29    12    36 1   
    30    13    14 1   
    31    13    37 1   
    32    13    38 1   
    33    14    15 1   
    34    15    16 1   
    35    15    39 1   
    36    15    40 1   
    37    16    17 1   
    38    16    41 1   
    39    16    42 1   
    40    17    18 1   
    41    18    21 1   
    42    18    22 1   
@<TRIPOS>SUBSTRUCTURE
     1 O4B         1 TEMP              0 ****  ****    0 ROOT
