@<TRIPOS>MOLECULE
O4B
   42    42     1     0     0
SMALL
abcg2


@<TRIPOS>ATOM
      1 CAA         -2.6250     2.5350     0.3260 c3         1 O4B       0.163517
      2 OAM         -2.5640     1.2220    -0.1700 os         1 O4B      -0.423833
      3 CAC         -3.5950     0.4050     0.3200 c3         1 O4B       0.163517
      4 CAD         -3.4700    -0.9800    -0.2630 c3         1 O4B       0.163517
      5 OAO         -2.2860    -1.5830     0.1940 os         1 O4B      -0.423833
      6 CAG         -2.1230    -2.8930    -0.2850 c3         1 O4B       0.163517
      7 CAH         -0.8440    -3.4770     0.2580 c3         1 O4B       0.163517
      8 OAQ          0.2570    -2.7760    -0.2620 os         1 O4B      -0.423833
      9 CAK          1.4840    -3.2690     0.2120 c3         1 O4B       0.163517
     10 CAL          2.6170    -2.4540    -0.3560 c3         1 O4B       0.163517
     11 OAR          2.5550    -1.1440     0.1480 os         1 O4B      -0.423833
     12 CAJ          3.5910    -0.3240    -0.3310 c3         1 O4B       0.163517
     13 CAI          3.4650     1.0550     0.2640 c3         1 O4B       0.163517
     14 OAP          2.2840     1.6630    -0.1930 os         1 O4B      -0.423833
     15 CAF          2.1150     2.9670     0.3020 c3         1 O4B       0.163517
     16 CAE          0.8430     3.5560    -0.2490 c3         1 O4B       0.163517
     17 OAN         -0.2640     2.8480     0.2460 os         1 O4B      -0.423833
     18 CAB         -1.4860     3.3450    -0.2360 c3         1 O4B       0.163517
     19 HAA1        -3.5660     3.0250     0.0370 h1         1 O4B       0.024492
     20 HAA2        -2.5860     2.5460     1.4250 h1         1 O4B       0.024492
     21 HAB1        -1.5150     3.3190    -1.3350 h1         1 O4B       0.024492
     22 HAB2        -1.6320     4.3930     0.0590 h1         1 O4B       0.024492
     23 HAC1        -3.5700     0.3520     1.4180 h1         1 O4B       0.024492
     24 HAC2        -4.5820     0.8010     0.0430 h1         1 O4B       0.024492
     25 HAD1        -4.3530    -1.5580     0.0450 h1         1 O4B       0.024492
     26 HAD2        -3.4900    -0.9290    -1.3610 h1         1 O4B       0.024492
     27 HAG1        -2.9550    -3.5380     0.0340 h1         1 O4B       0.024492
     28 HAG2        -2.1090    -2.9150    -1.3850 h1         1 O4B       0.024492
     29 HAH1        -0.8520    -3.4370     1.3570 h1         1 O4B       0.024492
     30 HAH2        -0.8060    -4.5390    -0.0200 h1         1 O4B       0.024492
     31 HAK1         1.5200    -3.2440     1.3100 h1         1 O4B       0.024492
     32 HAK2         1.6330    -4.3170    -0.0870 h1         1 O4B       0.024492
     33 HAL1         3.5610    -2.9430    -0.0750 h1         1 O4B       0.024492
     34 HAL2         2.5710    -2.4600    -1.4540 h1         1 O4B       0.024492
     35 HAJ1         4.5760    -0.7260    -0.0520 h1         1 O4B       0.024492
     36 HAJ2         3.5710    -0.2620    -1.4280 h1         1 O4B       0.024492
     37 HAI1         3.4790     0.9930     1.3610 h1         1 O4B       0.024492
     38 HAI2         4.3500     1.6350    -0.0340 h1         1 O4B       0.024492
     39 HAF1         2.0870     2.9730     1.4010 h1         1 O4B       0.024492
     40 HAF2         2.9500     3.6150     0.0020 h1         1 O4B       0.024492
     41 HAE1         0.7990     4.6150     0.0430 h1         1 O4B       0.024492
     42 HAE2         0.8670     3.5320    -1.3490 h1         1 O4B       0.024492
@<TRIPOS>BOND
     1     1     2 1   
     2     1    18 1   
     3     1    19 1   
     4     1    20 1   
     5     2     3 1   
     6     3     4 1   
     7     3    23 1   
     8     3    24 1   
     9     4     5 1   
    10     4    25 1   
    11     4    26 1   
    12     5     6 1   
    13     6     7 1   
    14     6    27 1   
    15     6    28 1   
    16     7     8 1   
    17     7    29 1   
    18     7    30 1   
    19     8     9 1   
    20     9    10 1   
    21     9    31 1   
    22     9    32 1   
    23    10    11 1   
    24    10    33 1   
    25    10    34 1   
    26    11    12 1   
    27    12    13 1   
    28    12    35 1   
    29    12    36 1   
    30    13    14 1   
    31    13    37 1   
    32    13    38 1   
    33    14    15 1   
    34    15    16 1   
    35    15    39 1   
    36    15    40 1   
    37    16    17 1   
    38    16    41 1   
    39    16    42 1   
    40    17    18 1   
    41    18    21 1   
    42    18    22 1   
@<TRIPOS>SUBSTRUCTURE
     1 O4B         1 TEMP              0 ****  ****    0 ROOT
