@<TRIPOS>MOLECULE
O4D
   57    60     1     0     0
SMALL
No Charge or Current Charge


@<TRIPOS>ATOM
      1 C1          -3.6950     0.7280     0.3260 cc         1 O4D       0.448400
      2 C3          -1.5630     0.2700     0.8040 ca         1 O4D       0.394500
      3 C12         -1.5670    -2.4250     0.3710 ca         1 O4D      -0.211000
      4 C13         -0.4070    -1.7210     0.7520 ca         1 O4D       0.408300
      5 C14         -5.9210     1.7010     0.0380 cc         1 O4D      -0.175500
      6 C15         -5.1600     0.1310    -1.5160 cc         1 O4D      -0.175500
      7 C16         -6.3670     0.6360    -1.9270 cd         1 O4D      -0.181000
      8 C17         -6.8310     1.5880    -0.9810 cd         1 O4D      -0.181000
      9 C22          4.6130     0.9920    -0.2130 c3         1 O4D       0.171800
     10 C23          3.2160     1.1050     0.4330 c3         1 O4D      -0.097400
     11 C24          4.2450    -1.2260    -1.3150 c6         1 O4D       0.125300
     12 C25          6.5290    -0.4610    -0.8100 c6         1 O4D       0.125300
     13 C26          2.8530     2.5520     0.8170 c3         1 O4D       0.104000
     14 C27          7.0280    -1.9290    -0.9610 c6         1 O4D       0.153600
     15 C28          4.7930    -2.6780    -1.4590 c6         1 O4D       0.153600
     16 C29          0.9120    -2.4440     0.9400 c3         1 O4D      -0.151400
     17 C10          0.3410     2.6670     0.6740 c          1 O4D       0.586100
     18 C5          -2.7140    -0.3400     0.3750 ca         1 O4D      -0.265900
     19 C8          -2.7800    -1.7340     0.1950 ca         1 O4D       0.052700
     20 N11          5.0920    -0.4010    -0.3930 n3         1 O4D      -0.715600
     21 N2          -1.9080     1.6010     1.0200 na         1 O4D      -0.008100
     22 N20          1.5130     2.6340     1.4040 ns         1 O4D      -0.506900
     23 N4          -3.2330     1.9120     0.7480 nd         1 O4D      -0.495100
     24 N6          -4.9660     0.7330    -0.2750 na         1 O4D       0.046200
     25 N7          -0.4050    -0.3910     0.9960 nb         1 O4D      -0.691000
     26 O18          0.3420     2.7370    -0.5490 o          1 O4D      -0.579100
     27 O19          6.1780    -2.6560    -1.8810 os         1 O4D      -0.449000
     28 H32         -1.5210    -3.5020     0.2330 ha         1 O4D       0.124000
     29 H33         -5.8830     2.3350     0.9170 h4         1 O4D       0.150000
     30 H34         -4.4580    -0.5440    -1.9880 h4         1 O4D       0.150000
     31 H35         -6.8660     0.3830    -2.8590 ha         1 O4D       0.132000
     32 H36         -7.7430     2.1720    -1.0710 ha         1 O4D       0.132000
     33 H39         -4.1870    -2.6690    -1.1750 hc         1 O4D       0.056367
     34 H40         -4.0320    -3.4950     0.3770 hc         1 O4D       0.056367
     35 H38         -4.9450    -1.9950     0.2880 hc         1 O4D       0.056367
     36 H41          4.5980     1.5160    -1.1800 h1         1 O4D       0.035700
     37 H42          5.3220     1.5320     0.4310 h1         1 O4D       0.035700
     38 H43          2.4580     0.7220    -0.2600 hc         1 O4D       0.050700
     39 H44          3.1830     0.4790     1.3320 hc         1 O4D       0.050700
     40 H45          3.2120    -1.2890    -0.9460 h1         1 O4D       0.040950
     41 H48          7.1630     0.0490    -0.0690 h1         1 O4D       0.040950
     42 H47          6.6710     0.0590    -1.7690 h1         1 O4D       0.040950
     43 H50          3.5810     2.9320     1.5480 h1         1 O4D       0.053700
     44 H49          2.9000     3.1950    -0.0720 h1         1 O4D       0.053700
     45 H51          8.0600    -1.9370    -1.3390 h1         1 O4D       0.051200
     46 H52          7.0160    -2.4330     0.0170 h1         1 O4D       0.051200
     47 H54          4.7160    -3.2050    -0.4970 h1         1 O4D       0.051200
     48 H53          4.1990    -3.2300    -2.2010 h1         1 O4D       0.051200
     49 H55          0.8240    -3.2180     1.7100 hc         1 O4D       0.054700
     50 H57          1.2220    -2.9290     0.0080 hc         1 O4D       0.054700
     51 H56          1.7150    -1.7610     1.2430 hc         1 O4D       0.054700
     52 H37          1.4270     2.5810     2.4120 hn         1 O4D       0.313500
     53 C21         -4.0570    -2.5080    -0.0990 c3         1 O4D      -0.058800
     54 C9          -0.9510     2.6140     1.5020 c3         1 O4D       0.012600
     55 H46          4.2060    -0.7640    -2.3130 h1         1 O4D       0.040950
     56 H30         -0.7010     2.3900     2.5440 h1         1 O4D       0.085700
     57 H31         -1.4130     3.6070     1.4650 h1         1 O4D       0.085700
@<TRIPOS>BOND
     1     1    18 1   
     2     1    23 2   
     3     1    24 1   
     4     2    18 ar  
     5     2    21 1   
     6     2    25 ar  
     7     3     4 ar  
     8     3    19 ar  
     9     3    28 1   
    10     4    16 1   
    11     4    25 ar  
    12     5     8 2   
    13     5    24 1   
    14     5    29 1   
    15     6     7 2   
    16     6    24 1   
    17     6    30 1   
    18     7     8 1   
    19     7    31 1   
    20     8    32 1   
    21     9    10 1   
    22     9    20 1   
    23     9    36 1   
    24     9    37 1   
    25    10    13 1   
    26    10    38 1   
    27    10    39 1   
    28    11    15 1   
    29    11    20 1   
    30    11    40 1   
    31    11    55 1   
    32    12    14 1   
    33    12    20 1   
    34    12    41 1   
    35    12    42 1   
    36    13    22 1   
    37    13    43 1   
    38    13    44 1   
    39    14    27 1   
    40    14    45 1   
    41    14    46 1   
    42    15    27 1   
    43    15    47 1   
    44    15    48 1   
    45    16    49 1   
    46    16    50 1   
    47    16    51 1   
    48    17    22 1   
    49    17    26 2   
    50    17    54 1   
    51    18    19 ar  
    52    19    53 1   
    53    21    23 1   
    54    21    54 1   
    55    22    52 1   
    56    33    53 1   
    57    34    53 1   
    58    35    53 1   
    59    54    56 1   
    60    54    57 1   
@<TRIPOS>SUBSTRUCTURE
     1 O4D         1 TEMP              0 ****  ****    0 ROOT
