@<TRIPOS>MOLECULE
O4D
   57    60     1     0     0
SMALL
abcg2


@<TRIPOS>ATOM
      1 C1          -3.9750     0.9100     0.2980 cc         1 O4D       0.448400
      2 C3          -2.4960    -0.7280     0.4150 ca         1 O4D       0.394500
      3 C12         -3.8950    -2.7520    -0.5500 ca         1 O4D      -0.211000
      4 C13         -2.5490    -2.8870    -0.1360 ca         1 O4D       0.408300
      5 C14         -5.7850     2.3600     1.1070 cc         1 O4D      -0.175500
      6 C15         -5.6970     1.9800    -1.0940 cc         1 O4D      -0.175500
      7 C16         -6.7640     2.8040    -0.8660 cd         1 O4D      -0.181000
      8 C17         -6.8200     3.0450     0.5340 cd         1 O4D      -0.181000
      9 C22          5.1280     0.3760    -0.8240 c3         1 O4D       0.171800
     10 C23          3.9990     0.3680     0.1980 c3         1 O4D      -0.097400
     11 C24          6.7510    -0.9320     0.4040 c6         1 O4D       0.125300
     12 C25          7.4760     0.6580    -1.1980 c6         1 O4D       0.125300
     13 C26          2.6520     0.5230    -0.4890 c3         1 O4D       0.104000
     14 C27          8.8410     0.6690    -0.5380 c6         1 O4D       0.153600
     15 C28          8.1320    -0.8920     1.0290 c6         1 O4D       0.153600
     16 C29         -1.8810    -4.2230    -0.2390 c3         1 O4D      -0.151400
     17 C10          0.3020     0.7020     0.1670 c          1 O4D       0.586100
     18 C5          -3.8120    -0.4710     0.0120 ca         1 O4D      -0.265900
     19 C8          -4.5660    -1.5480    -0.4880 ca         1 O4D       0.052700
     20 N11          6.4470     0.3430    -0.2230 n3         1 O4D      -0.715600
     21 N2          -2.0020     0.4270     0.9140 na         1 O4D      -0.008100
     22 N20          1.5790     0.4760     0.4840 ns         1 O4D      -0.506900
     23 N4          -2.8900     1.4200     0.8190 nd         1 O4D      -0.495100
     24 N6          -5.1060     1.7090     0.1110 na         1 O4D       0.046200
     25 N7          -1.8440    -1.8840     0.3530 nb         1 O4D      -0.691000
     26 O18         -0.0870     0.9550    -0.9600 o          1 O4D      -0.579100
     27 O19          9.1260    -0.5640     0.0840 os         1 O4D      -0.449000
     28 H32         -4.4070    -3.6300    -0.9240 ha         1 O4D       0.124000
     29 H33         -5.4780     2.2670     2.1360 h4         1 O4D       0.150000
     30 H34         -5.2960     1.5820    -2.0120 h4         1 O4D       0.150000
     31 H35         -7.4290     3.1960    -1.6190 ha         1 O4D       0.132000
     32 H36         -7.5420     3.6510     1.0590 ha         1 O4D       0.132000
     33 H39         -6.0810    -0.7600    -1.7790 hc         1 O4D       0.056367
     34 H40         -6.4180    -2.3800    -1.1680 hc         1 O4D       0.056367
     35 H38         -6.5940    -0.9700    -0.1170 hc         1 O4D       0.056367
     36 H41          4.9860    -0.4570    -1.5350 h1         1 O4D       0.035700
     37 H42          5.0570     1.2950    -1.4120 h1         1 O4D       0.035700
     38 H43          4.0000    -0.5640     0.7690 hc         1 O4D       0.050700
     39 H44          4.1500     1.1840     0.9090 hc         1 O4D       0.050700
     40 H45          6.0280    -1.1460     1.1930 h1         1 O4D       0.040950
     41 H48          7.2820     1.6460    -1.6230 h1         1 O4D       0.040950
     42 H47          7.4800    -0.0610    -2.0360 h1         1 O4D       0.040950
     43 H50          2.6140     1.4730    -1.0290 h1         1 O4D       0.053700
     44 H49          2.5170    -0.2700    -1.2310 h1         1 O4D       0.053700
     45 H51          9.6160     0.8450    -1.2860 h1         1 O4D       0.051200
     46 H52          8.8860     1.4890     0.1940 h1         1 O4D       0.051200
     47 H54          8.1340    -0.1670     1.8560 h1         1 O4D       0.051200
     48 H53          8.3830    -1.8700     1.4410 h1         1 O4D       0.051200
     49 H55         -1.9160    -4.5970    -1.2630 hc         1 O4D       0.054700
     50 H57         -0.8420    -4.1630     0.0750 hc         1 O4D       0.054700
     51 H56         -2.3890    -4.9600     0.3860 hc         1 O4D       0.054700
     52 H37          1.8090     0.2120     1.4290 hn         1 O4D       0.313500
     53 C21         -5.9910    -1.4130    -0.9100 c3         1 O4D      -0.058800
     54 C9          -0.6590     0.6550     1.3520 c3         1 O4D       0.012600
     55 H46          6.6950    -1.7620    -0.3220 h1         1 O4D       0.040950
     56 H30         -0.3690    -0.1140     2.0700 h1         1 O4D       0.085700
     57 H31         -0.6350     1.6130     1.8730 h1         1 O4D       0.085700
@<TRIPOS>BOND
     1     1    18 1   
     2     1    23 2   
     3     1    24 1   
     4     2    18 ar  
     5     2    21 1   
     6     2    25 ar  
     7     3     4 ar  
     8     3    19 ar  
     9     3    28 1   
    10     4    16 1   
    11     4    25 ar  
    12     5     8 2   
    13     5    24 1   
    14     5    29 1   
    15     6     7 2   
    16     6    24 1   
    17     6    30 1   
    18     7     8 1   
    19     7    31 1   
    20     8    32 1   
    21     9    10 1   
    22     9    20 1   
    23     9    36 1   
    24     9    37 1   
    25    10    13 1   
    26    10    38 1   
    27    10    39 1   
    28    11    15 1   
    29    11    20 1   
    30    11    40 1   
    31    11    55 1   
    32    12    14 1   
    33    12    20 1   
    34    12    41 1   
    35    12    42 1   
    36    13    22 1   
    37    13    43 1   
    38    13    44 1   
    39    14    27 1   
    40    14    45 1   
    41    14    46 1   
    42    15    27 1   
    43    15    47 1   
    44    15    48 1   
    45    16    49 1   
    46    16    50 1   
    47    16    51 1   
    48    17    22 1   
    49    17    26 2   
    50    17    54 1   
    51    18    19 ar  
    52    19    53 1   
    53    21    23 1   
    54    21    54 1   
    55    22    52 1   
    56    33    53 1   
    57    34    53 1   
    58    35    53 1   
    59    54    56 1   
    60    54    57 1   
@<TRIPOS>SUBSTRUCTURE
     1 O4D         1 TEMP              0 ****  ****    0 ROOT
