@<TRIPOS>MOLECULE
O4E
   26    26     1     0     0
SMALL
No Charge or Current Charge


@<TRIPOS>ATOM
      1 C11         19.8810    19.8120     1.3370 ca         1 O4E      -0.119000
      2 C12         18.4950    19.7700     1.1030 ca         1 O4E      -0.078000
      3 C14         14.1050    19.5490     0.6890 c3         1 O4E       0.079300
      4 C02         14.8910    18.3840     3.4270 c3         1 O4E       0.047600
      5 C03         15.8200    18.4820     2.1950 c3         1 O4E       0.113000
      6 C05         16.1680    20.8190     1.2920 c          1 O4E       0.616700
      7 C06         17.6580    20.8190     1.5520 ca         1 O4E      -0.139600
      8 C07         18.2450    21.9270     2.2000 ca         1 O4E      -0.033000
      9 C08         19.6310    21.9650     2.4320 ca         1 O4E      -0.025900
     10 C10         20.4500    20.9080     2.0060 ca         1 O4E      -0.071000
     11 N04         15.4720    19.5860     1.2560 n          1 O4E      -0.397800
     12 O13         15.5940    21.8670     1.0160 o          1 O4E      -0.578100
     13 S01         14.9160    19.8910     4.5120 sh         1 O4E      -0.442800
     14 Br1         20.4050    23.4670     3.3290 br         1 O4E      -0.093100
     15 H1          20.5150    18.9980     0.9920 ha         1 O4E       0.119000
     16 H2          18.0770    18.9250     0.5590 ha         1 O4E       0.121000
     17 H3          13.7690    18.5100     0.5740 h1         1 O4E       0.044033
     18 H4          13.4120    20.0790     1.3550 h1         1 O4E       0.044033
     19 H5          14.0970    20.0310    -0.2970 h1         1 O4E       0.044033
     20 H6          13.8590    18.2060     3.0990 h1         1 O4E       0.064700
     21 H7          15.1990    17.5230     4.0330 h1         1 O4E       0.064700
     22 H8          15.7790    17.5330     1.6450 h1         1 O4E       0.064700
     23 H9          16.8420    18.5940     2.5710 h1         1 O4E       0.064700
     24 H10         17.6240    22.7560     2.5340 ha         1 O4E       0.147000
     25 H11         21.5220    20.9400     2.1850 ha         1 O4E       0.130000
     26 H12         14.0280    19.4320     5.4290 hs         1 O4E       0.213800
@<TRIPOS>BOND
     1     1     2 ar  
     2     1    10 ar  
     3     1    15 1   
     4     2     7 ar  
     5     2    16 1   
     6     3    11 1   
     7     3    17 1   
     8     3    18 1   
     9     3    19 1   
    10     4     5 1   
    11     4    13 1   
    12     4    20 1   
    13     4    21 1   
    14     5    11 1   
    15     5    22 1   
    16     5    23 1   
    17     6     7 1   
    18     6    11 1   
    19     6    12 2   
    20     7     8 ar  
    21     8     9 ar  
    22     8    24 1   
    23     9    10 ar  
    24     9    14 1   
    25    10    25 1   
    26    13    26 1   
@<TRIPOS>SUBSTRUCTURE
     1 O4E         1 TEMP              0 ****  ****    0 ROOT
