@<TRIPOS>MOLECULE
O4E
   26    26     1     0     0
SMALL
abcg2


@<TRIPOS>ATOM
      1 C11         19.8720    19.9020     1.2520 ca         1 O4E      -0.119000
      2 C12         18.5260    19.8000     0.9300 ca         1 O4E      -0.078000
      3 C14         14.0910    19.5320     0.7570 c3         1 O4E       0.079300
      4 C02         15.0570    18.5490     3.4650 c3         1 O4E       0.047600
      5 C03         15.8250    18.4840     2.1500 c3         1 O4E       0.113000
      6 C05         16.1690    20.6840     1.0730 c          1 O4E       0.616700
      7 C06         17.6110    20.6900     1.4820 ca         1 O4E      -0.139600
      8 C07         18.0470    21.6890     2.3460 ca         1 O4E      -0.033000
      9 C08         19.3910    21.7610     2.6720 ca         1 O4E      -0.025900
     10 C10         20.3160    20.8780     2.1320 ca         1 O4E      -0.071000
     11 N04         15.4650    19.5430     1.2250 n          1 O4E      -0.397800
     12 O13         15.6900    21.6920     0.5750 o          1 O4E      -0.578100
     13 S01         15.3860    20.1410     4.2900 sh         1 O4E      -0.442800
     14 BR1         19.9770    23.0950     3.8730 br         1 O4E      -0.093100
     15 H1          20.5840    19.2140     0.8170 ha         1 O4E       0.119000
     16 H2          18.1940    19.0290     0.2460 ha         1 O4E       0.121000
     17 H3          13.7480    18.5010     0.7060 h1         1 O4E       0.044033
     18 H4          13.4250    20.0880     1.4210 h1         1 O4E       0.044033
     19 H5          14.0210    19.9630    -0.2390 h1         1 O4E       0.044033
     20 H6          13.9850    18.4390     3.3030 h1         1 O4E       0.064700
     21 H7          15.3880    17.7260     4.0960 h1         1 O4E       0.064700
     22 H8          15.6120    17.5200     1.6830 h1         1 O4E       0.064700
     23 H9          16.8920    18.5080     2.3520 h1         1 O4E       0.064700
     24 H10         17.3360    22.3880     2.7680 ha         1 O4E       0.147000
     25 H11         21.3650    20.9430     2.3850 ha         1 O4E       0.130000
     26 H12         14.4820    20.0150     5.2660 hs         1 O4E       0.213800
@<TRIPOS>BOND
     1     1     2 ar  
     2     1    10 ar  
     3     1    15 1   
     4     2     7 ar  
     5     2    16 1   
     6     3    11 1   
     7     3    17 1   
     8     3    18 1   
     9     3    19 1   
    10     4     5 1   
    11     4    13 1   
    12     4    20 1   
    13     4    21 1   
    14     5    11 1   
    15     5    22 1   
    16     5    23 1   
    17     6     7 1   
    18     6    11 1   
    19     6    12 2   
    20     7     8 ar  
    21     8     9 ar  
    22     8    24 1   
    23     9    10 ar  
    24     9    14 1   
    25    10    25 1   
    26    13    26 1   
@<TRIPOS>SUBSTRUCTURE
     1 O4E         1 TEMP              0 ****  ****    0 ROOT
