@<TRIPOS>MOLECULE
O4F
   41    43     1     0     0
SMALL
bcc


@<TRIPOS>ATOM
      1 N1           5.7680     0.9080    21.7800 nh         1 O4F      -0.651000
      2 N3           4.4430    -0.2070    29.7510 n1         1 O4F      -0.353800
      3 C4           7.1700     0.4990    19.8240 ca         1 O4F      -0.303300
      4 C5           5.9510     0.8670    20.4010 ca         1 O4F       0.175600
      5 C6           6.9580     0.9850    22.6080 c6         1 O4F       0.194300
      6 C7           6.6020     1.4590    24.0070 c6         1 O4F      -0.070900
      7 C8           5.5550     0.5350    24.6430 c6         1 O4F      -0.141700
      8 C10          4.7780    -0.0100    22.3360 c6         1 O4F       0.194300
      9 C13          7.2060     1.8820    28.9880 cx         1 O4F      -0.098400
     10 C15          5.1390     0.4480    29.1090 c1         1 O4F       0.232700
     11 N            6.3380     0.8490    17.6130 nb         1 O4F      -0.674000
     12 C1           4.9160     1.2500    19.5250 ca         1 O4F      -0.210600
     13 C11          5.1930     1.0210    26.0320 c          1 O4F       0.674100
     14 C12          6.0140     1.2640    28.3000 cx         1 O4F       0.092500
     15 C14          6.0560     2.7400    28.6130 cx         1 O4F      -0.098400
     16 C2           5.1850     1.2140    18.1640 ca         1 O4F       0.411200
     17 C3           7.3090     0.5050    18.4480 ca         1 O4F       0.413200
     18 C9           4.3460     0.4310    23.7240 c6         1 O4F      -0.070900
     19 N2           6.1660     0.8320    26.9600 ns         1 O4F      -0.553900
     20 H1           8.0110     0.1920    20.4320 ha         1 O4F       0.137000
     21 H2           7.4720     0.0130    22.6760 h1         1 O4F       0.040950
     22 H3           7.6580     1.6910    22.1600 h1         1 O4F       0.040950
     23 H4           7.5140     1.4880    24.6060 hc         1 O4F       0.061950
     24 H5           6.2100     2.4780    23.9570 hc         1 O4F       0.061950
     25 H6           6.0070    -0.4610    24.7390 hc         1 O4F       0.056700
     26 H7           3.9090    -0.0620    21.6840 h1         1 O4F       0.040950
     27 H8           5.1970    -1.0260    22.3850 h1         1 O4F       0.040950
     28 H9           7.3600     1.6390    30.0300 hc         1 O4F       0.087950
     29 H10          8.1090     1.9370    28.3930 hc         1 O4F       0.087950
     30 H11          2.8730     0.9600    20.1890 hc         1 O4F       0.045700
     31 H12          3.6940     2.3270    20.9290 hc         1 O4F       0.045700
     32 H13          3.1440     2.4170    19.2540 hc         1 O4F       0.045700
     33 H14          6.1540     3.3930    27.7570 hc         1 O4F       0.087950
     34 H15          5.4000     3.1020    29.3930 hc         1 O4F       0.087950
     35 H16          4.4050     1.5260    17.4740 h4         1 O4F       0.016100
     36 H17          8.2540     0.2080    18.0040 h4         1 O4F       0.016100
     37 H18          3.8420     1.3980    23.6550 hc         1 O4F       0.061950
     38 H19          3.6230    -0.2870    24.1140 hc         1 O4F       0.061950
     39 H20          6.9730     0.2700    26.7320 hn         1 O4F       0.323500
     40 C            3.5900     1.7620    20.0020 c3         1 O4F      -0.039800
     41 O            4.1400     1.5650    26.3090 o          1 O4F      -0.568100
@<TRIPOS>BOND
     1     1     4 1   
     2     1     5 1   
     3     1     8 1   
     4     2    10 3   
     5     3     4 ar  
     6     3    17 ar  
     7     3    20 1   
     8     4    12 ar  
     9     5     6 1   
    10     5    21 1   
    11     5    22 1   
    12     6     7 1   
    13     6    23 1   
    14     6    24 1   
    15     7    13 1   
    16     7    18 1   
    17     7    25 1   
    18     8    18 1   
    19     8    26 1   
    20     8    27 1   
    21     9    14 1   
    22     9    15 1   
    23     9    28 1   
    24     9    29 1   
    25    10    14 1   
    26    11    16 ar  
    27    11    17 ar  
    28    12    16 ar  
    29    12    40 1   
    30    13    19 1   
    31    13    41 2   
    32    14    15 1   
    33    14    19 1   
    34    15    33 1   
    35    15    34 1   
    36    16    35 1   
    37    17    36 1   
    38    18    37 1   
    39    18    38 1   
    40    19    39 1   
    41    30    40 1   
    42    31    40 1   
    43    32    40 1   
@<TRIPOS>SUBSTRUCTURE
     1 O4F         1 TEMP              0 ****  ****    0 ROOT
