@<TRIPOS>MOLECULE
O4F
   41    43     1     0     0
SMALL
No Charge or Current Charge


@<TRIPOS>ATOM
      1 N1           5.9390     0.8170    21.6610 nh         1 O4F      -0.789400
      2 N3           3.4070     0.2940    29.2790 n1         1 O4F      -0.443000
      3 C4           7.0560     0.3200    19.5550 ca         1 O4F      -0.220000
      4 C5           5.9290     0.7720    20.2510 ca         1 O4F       0.314000
      5 C6           7.1060     1.3910    22.3850 c6         1 O4F       0.194300
      6 C7           6.6670     1.9920    23.7430 c6         1 O4F      -0.070900
      7 C8           5.8720     0.9580    24.5850 c6         1 O4F      -0.141700
      8 C10          5.2310    -0.2470    22.4230 c6         1 O4F       0.194300
      9 C13          6.8830     1.2360    29.3880 cx         1 O4F      -0.098400
     10 C15          4.4220     0.7230    28.8990 c1         1 O4F       0.321900
     11 N            5.9500     0.6500    17.4350 nb         1 O4F      -0.674000
     12 C1           4.7980     1.1710    19.5110 ca         1 O4F      -0.145300
     13 C11          5.4310     1.4940    25.9600 c          1 O4F       0.607100
     14 C12          5.7120     1.2190    28.4310 cx         1 O4F       0.092500
     15 C14          6.2450     2.5340    28.9570 cx         1 O4F      -0.098400
     16 C2           4.8630     1.0890    18.1080 ca         1 O4F       0.345900
     17 C3           7.0270     0.2740    18.1570 ca         1 O4F       0.347900
     18 C9           4.7210     0.2970    23.7800 c6         1 O4F      -0.070900
     19 N2           5.9930     0.8740    27.0570 ns         1 O4F      -0.486900
     20 H1           7.9460    -0.0040    20.0840 ha         1 O4F       0.119000
     21 H2           7.8630     0.6110    22.5590 h1         1 O4F       0.040950
     22 H3           7.5780     2.1820    21.7830 h1         1 O4F       0.040950
     23 H4           7.5490     2.3410    24.2970 hc         1 O4F       0.061950
     24 H5           6.0420     2.8770    23.5590 hc         1 O4F       0.061950
     25 H6           6.5830     0.1470    24.8010 hc         1 O4F       0.056700
     26 H7           4.3760    -0.6320    21.8480 h1         1 O4F       0.040950
     27 H8           5.9100    -1.0940    22.6020 h1         1 O4F       0.040950
     28 H9           6.7160     0.9070    30.4120 hc         1 O4F       0.087950
     29 H10          7.8690     1.0030    28.9950 hc         1 O4F       0.087950
     30 H11          2.9490     0.8820    20.6240 hc         1 O4F       0.045700
     31 H12          3.7700     2.4110    20.9820 hc         1 O4F       0.045700
     32 H13          2.8820     2.2190    19.4680 hc         1 O4F       0.045700
     33 H14          6.8000     3.1680    28.2710 hc         1 O4F       0.087950
     34 H15          5.6480     3.0730    29.6890 hc         1 O4F       0.087950
     35 H16          4.0140     1.3880    17.4960 h4         1 O4F       0.016100
     36 H17          7.8900    -0.0780    17.5950 h4         1 O4F       0.016100
     37 H18          3.9270     1.0330    23.5970 hc         1 O4F       0.061950
     38 H19          4.2670    -0.5190    24.3600 hc         1 O4F       0.061950
     39 H20          6.6380     0.1170    26.8620 hn         1 O4F       0.323500
     40 C            3.5310     1.6990    20.1830 c3         1 O4F      -0.039800
     41 O            4.6320     2.4130    26.0700 o          1 O4F      -0.568100
@<TRIPOS>BOND
     1     1     4 1   
     2     1     5 1   
     3     1     8 1   
     4     2    10 3   
     5     3     4 ar  
     6     3    17 ar  
     7     3    20 1   
     8     4    12 ar  
     9     5     6 1   
    10     5    21 1   
    11     5    22 1   
    12     6     7 1   
    13     6    23 1   
    14     6    24 1   
    15     7    13 1   
    16     7    18 1   
    17     7    25 1   
    18     8    18 1   
    19     8    26 1   
    20     8    27 1   
    21     9    14 1   
    22     9    15 1   
    23     9    28 1   
    24     9    29 1   
    25    10    14 1   
    26    11    16 ar  
    27    11    17 ar  
    28    12    16 ar  
    29    12    40 1   
    30    13    19 1   
    31    13    41 2   
    32    14    15 1   
    33    14    19 1   
    34    15    33 1   
    35    15    34 1   
    36    16    35 1   
    37    17    36 1   
    38    18    37 1   
    39    18    38 1   
    40    19    39 1   
    41    30    40 1   
    42    31    40 1   
    43    32    40 1   
@<TRIPOS>SUBSTRUCTURE
     1 O4F         1 TEMP              0 ****  ****    0 ROOT
