@<TRIPOS>MOLECULE
O4G
   43    46     1     0     0
SMALL
bcc


@<TRIPOS>ATOM
      1 C1           4.2890     0.8900     0.0210 c          1 O4G       0.616600
      2 C2          -1.9030    -1.4110    -0.1660 c          1 O4G       0.694700
      3 C3           5.6730     1.3770     0.0780 cc         1 O4G       0.153200
      4 C11          0.5850    -1.5310    -0.1320 ca         1 O4G       0.103600
      5 C12          2.9850    -1.2230    -0.0780 ca         1 O4G       0.100600
      6 C14          6.1460     2.6500     0.1290 cd         1 O4G      -0.179300
      7 C17          1.7010    -0.6900    -0.0710 ca         1 O4G      -0.216000
      8 C19          7.8380     1.2150     0.1470 cc         1 O4G       0.260600
      9 C20         -2.8540     0.8810    -0.7190 ca         1 O4G      -0.101000
     10 C21          7.5620     2.5430     0.1750 cd         1 O4G      -0.282300
     11 C22         -3.9350     1.7430    -0.7730 ca         1 O4G      -0.138000
     12 C23          2.0410    -3.4270    -0.2090 ca         1 O4G      -0.075000
     13 C24          0.7510    -2.9130    -0.2020 ca         1 O4G      -0.175000
     14 C25          3.1510    -2.6090    -0.1490 ca         1 O4G      -0.212000
     15 C26         -7.4740     0.6400     0.9190 c6         1 O4G       0.094400
     16 C27         -7.4970     1.6240    -0.2230 c6         1 O4G       0.093400
     17 C10         -5.1850     1.3380    -0.3230 ca         1 O4G       0.083100
     18 C6          -3.0100    -0.4130    -0.2230 ca         1 O4G      -0.160600
     19 C7          -5.3460     0.0420     0.1870 ca         1 O4G       0.043100
     20 C8          -4.2640    -0.8210     0.2210 ca         1 O4G      -0.069000
     21 N4           4.1520    -0.4590    -0.0160 ns         1 O4G      -0.460100
     22 O13         -6.5380    -0.3950     0.6530 os         1 O4G      -0.301900
     23 O15          3.3660     1.6890     0.0110 o          1 O4G      -0.578100
     24 O16         -2.1340    -2.6080    -0.1450 o          1 O4G      -0.580100
     25 O18         -6.2110     2.2070    -0.3970 os         1 O4G      -0.303900
     26 O9           6.7020     0.5010     0.0880 os         1 O4G      -0.331800
     27 H31          5.5560     3.5520     0.1350 ha         1 O4G       0.178000
     28 H32          1.5540     0.3770    -0.0190 ha         1 O4G       0.162000
     29 H33          8.7610     0.6570     0.1640 h4         1 O4G       0.057100
     30 H35          8.2790     3.3450     0.2230 ha         1 O4G       0.167000
     31 H36         -3.8190     2.7400    -1.1770 ha         1 O4G       0.151000
     32 H37          2.1770    -4.4990    -0.2620 ha         1 O4G       0.133000
     33 H38         -0.0910    -3.5810    -0.2460 ha         1 O4G       0.169000
     34 H39          4.1460    -3.0390    -0.1570 ha         1 O4G       0.131000
     35 H41         -7.2190     1.1440     1.8570 h1         1 O4G       0.069700
     36 H40         -8.4490     0.1700     1.0340 h1         1 O4G       0.069700
     37 H42         -7.8100     1.1310    -1.1490 h1         1 O4G       0.070700
     38 H43         -8.1910     2.4370    -0.0130 h1         1 O4G       0.070700
     39 H30         -4.4090    -1.8200     0.6110 ha         1 O4G       0.168000
     40 H28          5.0020    -1.0040    -0.0070 hn         1 O4G       0.332500
     41 N5          -0.6530    -0.8820    -0.1240 ns         1 O4G      -0.469100
     42 H34         -1.9070     1.2310    -1.1100 ha         1 O4G       0.137000
     43 H29         -0.5910     0.1200    -0.0410 hn         1 O4G       0.323500
@<TRIPOS>BOND
     1     1     3 1   
     2     1    21 1   
     3     1    23 2   
     4     2    18 1   
     5     2    24 2   
     6     2    41 1   
     7     3     6 2   
     8     3    26 1   
     9     4     7 ar  
    10     4    13 ar  
    11     4    41 1   
    12     5     7 ar  
    13     5    14 ar  
    14     5    21 1   
    15     6    10 1   
    16     6    27 1   
    17     7    28 1   
    18     8    10 2   
    19     8    26 1   
    20     8    29 1   
    21     9    11 ar  
    22     9    18 ar  
    23     9    42 1   
    24    10    30 1   
    25    11    17 ar  
    26    11    31 1   
    27    12    13 ar  
    28    12    14 ar  
    29    12    32 1   
    30    13    33 1   
    31    14    34 1   
    32    15    16 1   
    33    15    22 1   
    34    15    35 1   
    35    15    36 1   
    36    16    25 1   
    37    16    37 1   
    38    16    38 1   
    39    17    19 ar  
    40    17    25 1   
    41    18    20 ar  
    42    19    20 ar  
    43    19    22 1   
    44    20    39 1   
    45    21    40 1   
    46    41    43 1   
@<TRIPOS>SUBSTRUCTURE
     1 O4G         1 TEMP              0 ****  ****    0 ROOT
