@<TRIPOS>MOLECULE
O4G
   43    46     1     0     0
SMALL
No Charge or Current Charge


@<TRIPOS>ATOM
      1 C1           4.3940     0.9950    -0.0760 c          1 O4G       0.549600
      2 C2          -1.9610    -1.4730     0.0210 c          1 O4G       0.627700
      3 C3           5.8330     1.3670    -0.0880 cc         1 O4G       0.043500
      4 C11          0.6140    -1.5500    -0.0230 ca         1 O4G       0.011000
      5 C12          3.0460    -1.1990    -0.0450 ca         1 O4G       0.008000
      6 C14          6.3420     2.6390    -0.1040 cd         1 O4G      -0.096000
      7 C17          1.7290    -0.6890    -0.0400 ca         1 O4G      -0.198000
      8 C19          8.0400     1.1770    -0.0980 cc         1 O4G       0.150900
      9 C20         -2.8510     0.9420    -0.0540 ca         1 O4G      -0.083000
     10 C21          7.7470     2.5140    -0.1110 cd         1 O4G      -0.199000
     11 C22         -3.9240     1.8520    -0.0760 ca         1 O4G      -0.120000
     12 C23          2.1330    -3.4610    -0.0200 ca         1 O4G      -0.057000
     13 C24          0.8280    -2.9450    -0.0140 ca         1 O4G      -0.157000
     14 C25          3.2340    -2.5910    -0.0350 ca         1 O4G      -0.194000
     15 C26         -7.8400     0.4710     0.4030 c6         1 O4G       0.117600
     16 C27         -7.6040     1.7820    -0.3780 c6         1 O4G       0.116600
     17 C10         -5.2450     1.3880    -0.0450 ca         1 O4G       0.083100
     18 C6          -3.0900    -0.4570     0.0010 ca         1 O4G      -0.160600
     19 C7          -5.5000    -0.0020     0.0320 ca         1 O4G       0.043100
     20 C8          -4.4310    -0.9120     0.0430 ca         1 O4G      -0.051000
     21 N4           4.2100    -0.3820    -0.0610 ns         1 O4G      -0.134000
     22 O13         -6.7950    -0.4780     0.0950 os         1 O4G      -0.325100
     23 O15          3.4840     1.8200    -0.0800 o          1 O4G      -0.578100
     24 O16         -2.1960    -2.6760     0.0720 o          1 O4G      -0.580100
     25 O18         -6.2850     2.2960    -0.0900 os         1 O4G      -0.327100
     26 O9           6.8690     0.4500    -0.0840 os         1 O4G      -0.243000
     27 H31          5.7670     3.5610    -0.1110 ha         1 O4G       0.160000
     28 H32          1.5510     0.3810    -0.0470 ha         1 O4G       0.144000
     29 H33          8.9770     0.6350    -0.0980 h4         1 O4G       0.057100
     30 H35          8.4700     3.3240    -0.1230 ha         1 O4G       0.149000
     31 H36         -3.7290     2.9210    -0.1270 ha         1 O4G       0.133000
     32 H37          2.2910    -4.5380    -0.0130 ha         1 O4G       0.115000
     33 H38          0.0010    -3.6480    -0.0050 ha         1 O4G       0.151000
     34 H39          4.2400    -3.0060    -0.0380 ha         1 O4G       0.113000
     35 H41         -7.8260     0.6810     1.4820 h1         1 O4G       0.069700
     36 H40         -8.8160     0.0360     0.1480 h1         1 O4G       0.069700
     37 H42         -7.6830     1.5850    -1.4570 h1         1 O4G       0.070700
     38 H43         -8.3570     2.5360    -0.1090 h1         1 O4G       0.070700
     39 H30         -4.6520    -1.9760     0.0940 ha         1 O4G       0.150000
     40 H28          5.0750    -0.9070    -0.0600 hn         1 O4G       0.166000
     41 N5          -0.6740    -0.9470    -0.0200 ns         1 O4G      -0.143000
     42 H34         -1.8420     1.3450    -0.0840 ha         1 O4G       0.119000
     43 H29         -0.6450     0.0620    -0.0550 hn         1 O4G       0.157000
@<TRIPOS>BOND
     1     1     3 1   
     2     1    21 1   
     3     1    23 2   
     4     2    18 1   
     5     2    24 2   
     6     2    41 1   
     7     3     6 2   
     8     3    26 1   
     9     4     7 ar  
    10     4    13 ar  
    11     4    41 1   
    12     5     7 ar  
    13     5    14 ar  
    14     5    21 1   
    15     6    10 1   
    16     6    27 1   
    17     7    28 1   
    18     8    10 2   
    19     8    26 1   
    20     8    29 1   
    21     9    11 ar  
    22     9    18 ar  
    23     9    42 1   
    24    10    30 1   
    25    11    17 ar  
    26    11    31 1   
    27    12    13 ar  
    28    12    14 ar  
    29    12    32 1   
    30    13    33 1   
    31    14    34 1   
    32    15    16 1   
    33    15    22 1   
    34    15    35 1   
    35    15    36 1   
    36    16    25 1   
    37    16    37 1   
    38    16    38 1   
    39    17    19 ar  
    40    17    25 1   
    41    18    20 ar  
    42    19    20 ar  
    43    19    22 1   
    44    20    39 1   
    45    21    40 1   
    46    41    43 1   
@<TRIPOS>SUBSTRUCTURE
     1 O4G         1 TEMP              0 ****  ****    0 ROOT
