@<TRIPOS>MOLECULE
O4I
   49    50     1     0     0
SMALL
No Charge or Current Charge


@<TRIPOS>ATOM
      1 O1          14.8620    20.7220     1.0370 os         1 O4I      -0.366100
      2 O2          15.4980    18.3150    -1.4660 o          1 O4I      -0.615100
      3 O3          19.3970    24.3010    -0.3580 o          1 O4I      -0.599100
      4 C1          12.8700    20.0680    -0.1020 c3         1 O4I      -0.094600
      5 C2          14.3330    19.6510     0.2070 c3         1 O4I       0.123000
      6 C3          14.2960    18.3720     1.0960 c3         1 O4I      -0.094600
      7 C4          16.1850    20.8940     1.4080 ca         1 O4I       0.138100
      8 C5          16.4860    22.0610     2.1310 ca         1 O4I      -0.163000
      9 C6          17.8080    22.3470     2.5160 ca         1 O4I      -0.065500
     10 C7          18.8410    21.4590     2.1790 ca         1 O4I       0.097000
     11 Cl1         20.4970    21.8120     2.6580 cl         1 O4I      -0.209000
     12 C8          18.5530    20.2870     1.4620 ca         1 O4I      -0.065500
     13 C9          17.2300    20.0010     1.0760 ca         1 O4I      -0.163000
     14 C10         15.1220    19.4410    -1.1510 c          1 O4I       0.581100
     15 N1          15.3450    20.5160    -2.0630 n          1 O4I      -0.401800
     16 C11         16.0410    20.3010    -3.3610 c6         1 O4I       0.097000
     17 C12         17.4710    20.8880    -3.3140 c6         1 O4I      -0.092900
     18 C13         17.4490    22.4000    -2.9560 c6         1 O4I      -0.082700
     19 C14         18.8930    22.9730    -2.8670 c3         1 O4I       0.103000
     20 N2          18.9250    24.4130    -2.5900 ns         1 O4I      -0.492900
     21 C15         19.1510    24.9760    -1.3490 c          1 O4I       0.590100
     22 C16         19.0600    26.5070    -1.3070 c3         1 O4I       0.037600
     23 Cl2         17.3610    27.1330    -1.5690 cl         1 O4I      -0.281000
     24 C17         16.6300    22.6260    -1.6530 c6         1 O4I      -0.092900
     25 C18         15.2320    21.9660    -1.7370 c6         1 O4I       0.097000
     26 H1          12.3080    20.2360     0.8250 hc         1 O4I       0.055033
     27 H2          12.8200    20.9860    -0.6950 hc         1 O4I       0.055033
     28 H3          12.3590    19.2800    -0.6680 hc         1 O4I       0.055033
     29 H4          13.7820    18.5740     2.0440 hc         1 O4I       0.055033
     30 H5          13.7570    17.5640     0.5880 hc         1 O4I       0.055033
     31 H6          15.2980    18.0010     1.3320 hc         1 O4I       0.055033
     32 H7          15.6890    22.7550     2.3840 ha         1 O4I       0.131500
     33 H8          18.0320    23.2560     3.0690 ha         1 O4I       0.131000
     34 H9          19.3560    19.6010     1.2040 ha         1 O4I       0.131000
     35 H10         17.0540    19.0880     0.5210 ha         1 O4I       0.131500
     36 H11         15.4690    20.7960    -4.1600 h1         1 O4I       0.060450
     37 H12         16.0880    19.2340    -3.6200 h1         1 O4I       0.060450
     38 H13         18.0650    20.3350    -2.5730 hc         1 O4I       0.056950
     39 H14         17.9620    20.7360    -4.2860 hc         1 O4I       0.056950
     40 H15         16.9510    22.9400    -3.7750 hc         1 O4I       0.044700
     41 H16         19.4480    22.4330    -2.0870 h1         1 O4I       0.065200
     42 H17         19.4060    22.7940    -3.8220 h1         1 O4I       0.065200
     43 H18         18.7130    25.0540    -3.3460 hn         1 O4I       0.325500
     44 H19         19.4070    26.8550    -0.3280 h1         1 O4I       0.095700
     45 H20         19.7050    26.9220    -2.0900 h1         1 O4I       0.095700
     46 H21         17.1830    22.2180    -0.7970 hc         1 O4I       0.056950
     47 H22         16.5060    23.7000    -1.4590 hc         1 O4I       0.056950
     48 H23         14.6540    22.4580    -2.5330 h1         1 O4I       0.060450
     49 H24         14.6860    22.1500    -0.8080 h1         1 O4I       0.060450
@<TRIPOS>BOND
     1     1     5 1   
     2     1     7 1   
     3     2    14 2   
     4     3    21 2   
     5     4     5 1   
     6     4    26 1   
     7     4    27 1   
     8     4    28 1   
     9     5     6 1   
    10     5    14 1   
    11     6    29 1   
    12     6    30 1   
    13     6    31 1   
    14     7     8 ar  
    15     7    13 ar  
    16     8     9 ar  
    17     8    32 1   
    18     9    10 ar  
    19     9    33 1   
    20    10    11 1   
    21    10    12 ar  
    22    12    13 ar  
    23    12    34 1   
    24    13    35 1   
    25    14    15 1   
    26    15    16 1   
    27    15    25 1   
    28    16    17 1   
    29    16    36 1   
    30    16    37 1   
    31    17    18 1   
    32    17    38 1   
    33    17    39 1   
    34    18    19 1   
    35    18    24 1   
    36    18    40 1   
    37    19    20 1   
    38    19    41 1   
    39    19    42 1   
    40    20    21 1   
    41    20    43 1   
    42    21    22 1   
    43    22    23 1   
    44    22    44 1   
    45    22    45 1   
    46    24    25 1   
    47    24    46 1   
    48    24    47 1   
    49    25    48 1   
    50    25    49 1   
@<TRIPOS>SUBSTRUCTURE
     1 O4I         1 TEMP              0 ****  ****    0 ROOT
