@<TRIPOS>MOLECULE
O4I
   49    50     1     0     0
SMALL
abcg2


@<TRIPOS>ATOM
      1 O1          14.8900    20.7970     0.9960 os         1 O4I      -0.366100
      2 O2          15.2080    18.2890    -1.4790 o          1 O4I      -0.615100
      3 O3          19.4510    24.4520    -0.3720 o          1 O4I      -0.599100
      4 C1          12.8840    20.1530    -0.0700 c3         1 O4I      -0.094600
      5 C2          14.3200    19.7160     0.2220 c3         1 O4I       0.123000
      6 C3          14.2990    18.4490     1.0750 c3         1 O4I      -0.094600
      7 C4          16.2160    20.8650     1.3030 ca         1 O4I       0.138100
      8 C5          16.5850    21.9870     2.0510 ca         1 O4I      -0.163000
      9 C6          17.9130    22.2220     2.3650 ca         1 O4I      -0.065500
     10 C7          18.8820    21.3240     1.9310 ca         1 O4I       0.097000
     11 CL1         20.5690    21.6270     2.3010 cl         1 O4I      -0.209000
     12 C8          18.5300    20.1980     1.2080 ca         1 O4I      -0.065500
     13 C9          17.1950    19.9620     0.8940 ca         1 O4I      -0.163000
     14 C10         15.0460    19.4630    -1.1310 c          1 O4I       0.581100
     15 N1          15.4380    20.4980    -1.9040 n          1 O4I      -0.401800
     16 C11         16.1600    20.2280    -3.1510 c6         1 O4I       0.097000
     17 C12         17.5370    20.8840    -3.1210 c6         1 O4I      -0.092900
     18 C13         17.4360    22.3900    -2.8690 c6         1 O4I      -0.082700
     19 C14         18.8330    23.0030    -2.7620 c3         1 O4I       0.103000
     20 N2          18.8010    24.4430    -2.5560 ns         1 O4I      -0.492900
     21 C15         19.0740    25.0340    -1.3900 c          1 O4I       0.590100
     22 C16         18.9240    26.5440    -1.2880 c3         1 O4I       0.037600
     23 CL2         18.3050    27.3930    -2.7590 cl         1 O4I      -0.281000
     24 C17         16.5990    22.6550    -1.6180 c6         1 O4I      -0.092900
     25 C18         15.2540    21.9330    -1.6660 c6         1 O4I       0.097000
     26 H1          12.3510    20.2950     0.8710 hc         1 O4I       0.055033
     27 H2          12.8470    21.0810    -0.6370 hc         1 O4I       0.055033
     28 H3          12.3800    19.3750    -0.6430 hc         1 O4I       0.055033
     29 H4          13.8020    18.6870     2.0170 hc         1 O4I       0.055033
     30 H5          13.7420    17.6630     0.5720 hc         1 O4I       0.055033
     31 H6          15.2970    18.0760     1.2900 hc         1 O4I       0.055033
     32 H7          15.8180    22.6840     2.3610 ha         1 O4I       0.131500
     33 H8          18.1930    23.1000     2.9300 ha         1 O4I       0.131000
     34 H9          19.2900    19.5030     0.8760 ha         1 O4I       0.131000
     35 H10         16.9550    19.0830     0.3180 ha         1 O4I       0.131500
     36 H11         15.5700    20.6310    -3.9800 h1         1 O4I       0.060450
     37 H12         16.2380    19.1540    -3.2770 h1         1 O4I       0.060450
     38 H13         18.1330    20.4200    -2.3280 hc         1 O4I       0.056950
     39 H14         18.0450    20.6890    -4.0690 hc         1 O4I       0.056950
     40 H15         16.9270    22.8440    -3.7280 hc         1 O4I       0.044700
     41 H16         19.3700    22.5650    -1.9210 h1         1 O4I       0.065200
     42 H17         19.3990    22.7980    -3.6720 h1         1 O4I       0.065200
     43 H18         18.4730    25.0230    -3.3130 hn         1 O4I       0.325500
     44 H19         18.2310    26.7650    -0.4820 h1         1 O4I       0.095700
     45 H20         19.8960    26.9750    -1.0600 h1         1 O4I       0.095700
     46 H21         17.1540    22.3250    -0.7390 hc         1 O4I       0.056950
     47 H22         16.4120    23.7240    -1.5010 hc         1 O4I       0.056950
     48 H23         14.6560    22.3260    -2.4950 h1         1 O4I       0.060450
     49 H24         14.7060    22.0980    -0.7510 h1         1 O4I       0.060450
@<TRIPOS>BOND
     1     1     5 1   
     2     1     7 1   
     3     2    14 2   
     4     3    21 2   
     5     4     5 1   
     6     4    26 1   
     7     4    27 1   
     8     4    28 1   
     9     5     6 1   
    10     5    14 1   
    11     6    29 1   
    12     6    30 1   
    13     6    31 1   
    14     7     8 ar  
    15     7    13 ar  
    16     8     9 ar  
    17     8    32 1   
    18     9    10 ar  
    19     9    33 1   
    20    10    11 1   
    21    10    12 ar  
    22    12    13 ar  
    23    12    34 1   
    24    13    35 1   
    25    14    15 1   
    26    15    16 1   
    27    15    25 1   
    28    16    17 1   
    29    16    36 1   
    30    16    37 1   
    31    17    18 1   
    32    17    38 1   
    33    17    39 1   
    34    18    19 1   
    35    18    24 1   
    36    18    40 1   
    37    19    20 1   
    38    19    41 1   
    39    19    42 1   
    40    20    21 1   
    41    20    43 1   
    42    21    22 1   
    43    22    23 1   
    44    22    44 1   
    45    22    45 1   
    46    24    25 1   
    47    24    46 1   
    48    24    47 1   
    49    25    48 1   
    50    25    49 1   
@<TRIPOS>SUBSTRUCTURE
     1 O4I         1 TEMP              0 ****  ****    0 ROOT
