@<TRIPOS>MOLECULE
O4L
   40    42     1     0     0
SMALL
abcg2


@<TRIPOS>ATOM
      1 N1           7.9750    -4.9470    24.3580 ns         1 O4L      -0.402200
      2 N3           8.6750    -6.0870    28.1140 ns         1 O4L      -0.236900
      3 C4           7.1000    -3.7890    19.6850 c          1 O4L       0.610700
      4 C5           7.6000    -2.7190    18.7420 c3         1 O4L      -0.188100
      5 C6           7.3160    -4.7010    22.0370 cc         1 O4L      -0.036300
      6 C7           6.4090    -5.8760    22.0500 c3         1 O4L      -0.033800
      7 C8           7.0550    -4.5530    25.2830 c          1 O4L       0.540800
      8 C10          7.7670    -6.3430    29.1210 c          1 O4L       0.556600
      9 C13          4.0480    -6.0260    29.3390 ca         1 O4L      -0.105000
     10 C15          4.7530    -5.2040    27.1760 ca         1 O4L      -0.083000
     11 O2           8.1460    -6.8090    30.1910 o          1 O4L      -0.526000
     12 N2           8.4300    -5.5430    26.9210 nc         1 O4L      -0.422300
     13 C11          6.3840    -6.0240    28.7700 ca         1 O4L      -0.147600
     14 C16          6.0940    -5.4620    27.5070 ca         1 O4L      -0.104900
     15 C14          3.7490    -5.4860    28.0820 ca         1 O4L      -0.081000
     16 C12          5.3580    -6.2950    29.6790 ca         1 O4L      -0.054000
     17 C9           7.2100    -5.2230    26.6180 cd         1 O4L       0.328900
     18 O1           6.1860    -3.7310    25.0460 o          1 O4L      -0.546100
     19 N            8.0380    -4.3240    23.1390 na         1 O4L       0.144700
     20 C1           8.8040    -3.1830    22.8920 cc         1 O4L      -0.154300
     21 C            9.6640    -2.5830    23.9450 c3         1 O4L      -0.023800
     22 C3           7.6320    -3.7840    21.0390 cd         1 O4L      -0.256600
     23 C2           8.5690    -2.8430    21.5940 cd         1 O4L      -0.126000
     24 O            6.2730    -4.6170    19.3020 o          1 O4L      -0.559100
     25 H1           8.7230    -5.5790    24.6060 hn         1 O4L       0.362500
     26 H2           9.6480    -6.2990    28.2940 hn         1 O4L       0.358500
     27 H3           7.1290    -2.8380    17.7690 hc         1 O4L       0.058033
     28 H4           7.3730    -1.7270    19.1390 hc         1 O4L       0.058033
     29 H5           8.6860    -2.7800    18.6350 hc         1 O4L       0.058033
     30 H6           6.5990    -6.5140    21.1880 hc         1 O4L       0.060700
     31 H7           6.5440    -6.4560    22.9620 hc         1 O4L       0.060700
     32 H8           5.3650    -5.5610    21.9930 hc         1 O4L       0.060700
     33 H9           3.2500    -6.2370    30.0390 ha         1 O4L       0.125000
     34 H10          4.5130    -4.7830    26.2130 ha         1 O4L       0.148000
     35 H11          2.7200    -5.2850    27.8160 ha         1 O4L       0.125000
     36 H12          5.6100    -6.7230    30.6390 ha         1 O4L       0.142000
     37 H13          9.0790    -2.2550    24.8080 hc         1 O4L       0.049700
     38 H14         10.4120    -3.2940    24.3070 hc         1 O4L       0.049700
     39 H15         10.1830    -1.7180    23.5350 hc         1 O4L       0.049700
     40 H16          9.0170    -2.0070    21.0820 ha         1 O4L       0.137000
@<TRIPOS>BOND
     1     1     7 1   
     2     1    19 1   
     3     1    25 1   
     4     2     8 1   
     5     2    12 1   
     6     2    26 1   
     7     3     4 1   
     8     3    22 1   
     9     3    24 2   
    10     4    27 1   
    11     4    28 1   
    12     4    29 1   
    13     5     6 1   
    14     5    19 1   
    15     5    22 2   
    16     6    30 1   
    17     6    31 1   
    18     6    32 1   
    19     7    17 1   
    20     7    18 2   
    21     8    11 2   
    22     8    13 1   
    23     9    15 ar  
    24     9    16 ar  
    25     9    33 1   
    26    10    14 ar  
    27    10    15 ar  
    28    10    34 1   
    29    12    17 2   
    30    13    14 ar  
    31    13    16 ar  
    32    14    17 1   
    33    15    35 1   
    34    16    36 1   
    35    19    20 1   
    36    20    21 1   
    37    20    23 2   
    38    21    37 1   
    39    21    38 1   
    40    21    39 1   
    41    22    23 1   
    42    23    40 1   
@<TRIPOS>SUBSTRUCTURE
     1 O4L         1 TEMP              0 ****  ****    0 ROOT
