@<TRIPOS>MOLECULE
O4L
   40    42     1     0     0
SMALL
No Charge or Current Charge


@<TRIPOS>ATOM
      1 N1           8.1060    -4.8990    24.3630 ns         1 O4L      -0.402200
      2 N3           8.4460    -6.8490    27.9050 ns         1 O4L      -0.236900
      3 C4           7.3030    -3.9420    19.5570 c          1 O4L       0.610700
      4 C5           7.5450    -2.7430    18.6410 c3         1 O4L      -0.188100
      5 C6           7.5990    -4.8130    21.9390 cc         1 O4L      -0.036300
      6 C7           6.9770    -6.1870    21.8330 c3         1 O4L      -0.033800
      7 C8           6.9950    -4.7390    25.1820 c          1 O4L       0.540800
      8 C10          7.5990    -6.9530    28.9810 c          1 O4L       0.556600
      9 C13          4.1400    -5.5300    29.7000 ca         1 O4L      -0.105000
     10 C15          4.8370    -4.7800    27.4930 ca         1 O4L      -0.083000
     11 O2           7.8860    -7.6020    29.9770 o          1 O4L      -0.526000
     12 N2           8.2600    -6.1630    26.7300 nc         1 O4L      -0.422300
     13 C11          6.3090    -6.2010    28.8060 ca         1 O4L      -0.147600
     14 C16          6.0720    -5.4740    27.6020 ca         1 O4L      -0.104900
     15 C14          3.8870    -4.8100    28.5280 ca         1 O4L      -0.081000
     16 C12          5.3480    -6.2240    29.8400 ca         1 O4L      -0.054000
     17 C9           7.1240    -5.4710    26.5140 cd         1 O4L       0.328900
     18 O1           6.0370    -4.0660    24.8140 o          1 O4L      -0.546100
     19 N            8.1700    -4.2900    23.1070 na         1 O4L       0.144700
     20 C1           8.6090    -2.9820    22.9090 cc         1 O4L      -0.154300
     21 C            9.2180    -2.1000    23.9670 c3         1 O4L      -0.023800
     22 C3           7.7480    -3.8310    20.9800 cd         1 O4L      -0.256600
     23 C2           8.3720    -2.7140    21.5910 cd         1 O4L      -0.126000
     24 O            6.7610    -4.9460    19.1110 o          1 O4L      -0.559100
     25 H1           8.8860    -5.4600    24.6870 hn         1 O4L       0.362500
     26 H2           9.3230    -7.3530    28.0090 hn         1 O4L       0.358500
     27 H3           7.1920    -2.9130    17.6180 hc         1 O4L       0.058033
     28 H4           7.0800    -1.8570    19.0870 hc         1 O4L       0.058033
     29 H5           8.6100    -2.4870    18.6640 hc         1 O4L       0.058033
     30 H6           7.4740    -6.7790    21.0560 hc         1 O4L       0.060700
     31 H7           7.0530    -6.7500    22.7700 hc         1 O4L       0.060700
     32 H8           5.9140    -6.1130    21.5770 hc         1 O4L       0.060700
     33 H9           3.4020    -5.5510    30.5000 ha         1 O4L       0.125000
     34 H10          4.5740    -4.2030    26.6150 ha         1 O4L       0.148000
     35 H11          2.9490    -4.2690    28.4170 ha         1 O4L       0.125000
     36 H12          5.5370    -6.7820    30.7560 ha         1 O4L       0.142000
     37 H13          8.4850    -1.8610    24.7460 hc         1 O4L       0.049700
     38 H14         10.0740    -2.5930    24.4440 hc         1 O4L       0.049700
     39 H15          9.5720    -1.1550    23.5370 hc         1 O4L       0.049700
     40 H16          8.6120    -1.7730    21.1020 ha         1 O4L       0.137000
@<TRIPOS>BOND
     1     1     7 1   
     2     1    19 1   
     3     1    25 1   
     4     2     8 1   
     5     2    12 1   
     6     2    26 1   
     7     3     4 1   
     8     3    22 1   
     9     3    24 2   
    10     4    27 1   
    11     4    28 1   
    12     4    29 1   
    13     5     6 1   
    14     5    19 1   
    15     5    22 2   
    16     6    30 1   
    17     6    31 1   
    18     6    32 1   
    19     7    17 1   
    20     7    18 2   
    21     8    11 2   
    22     8    13 1   
    23     9    15 ar  
    24     9    16 ar  
    25     9    33 1   
    26    10    14 ar  
    27    10    15 ar  
    28    10    34 1   
    29    12    17 2   
    30    13    14 ar  
    31    13    16 ar  
    32    14    17 1   
    33    15    35 1   
    34    16    36 1   
    35    19    20 1   
    36    20    21 1   
    37    20    23 2   
    38    21    37 1   
    39    21    38 1   
    40    21    39 1   
    41    22    23 1   
    42    23    40 1   
@<TRIPOS>SUBSTRUCTURE
     1 O4L         1 TEMP              0 ****  ****    0 ROOT
