@<TRIPOS>MOLECULE
O4N
   72    75     1     0     0
SMALL
No Charge or Current Charge


@<TRIPOS>ATOM
      1 C1          -1.4210    -4.6450     1.9430 ca         1 O4N      -0.129000
      2 C2          -2.7700    -4.6900     1.5750 ca         1 O4N      -0.109000
      3 C3          -0.7220    -3.4290     1.9040 ca         1 O4N      -0.101000
      4 C4          -3.4170    -3.5180     1.1610 ca         1 O4N      -0.128000
      5 C5          -3.2750     2.4430     0.5970 ca         1 O4N      -0.122000
      6 C6           3.1340     0.4910    -0.8200 ca         1 O4N      -0.048000
      7 C7           3.7350    -1.4190     0.5570 ca         1 O4N      -0.048000
      8 C8          -2.4840     3.3910     1.2770 ca         1 O4N      -0.123000
      9 C9           4.1860     0.1850    -1.7000 ca         1 O4N      -0.178500
     10 C10          4.7870    -1.7260    -0.3240 ca         1 O4N      -0.178500
     11 C11         -1.3580    -2.2290     1.4930 ca         1 O4N      -0.105600
     12 C12         -1.4350     1.9910    -0.9700 ca         1 O4N      -0.065600
     13 C13          2.8990    -0.3080     0.3150 ca         1 O4N      -0.109300
     14 C14         -2.7330    -2.2840     1.1070 ca         1 O4N      -0.016300
     15 C15         -2.7590     1.7300    -0.5170 ca         1 O4N      -0.060300
     16 C16         -1.1760     3.5970     0.8280 ca         1 O4N       0.041100
     17 C17         -0.6720     2.9290    -0.2540 ca         1 O4N       0.055100
     18 C18          5.0160    -0.9210    -1.4600 ca         1 O4N       0.126100
     19 C21         -0.5610    -0.9340     1.5070 c          1 O4N       0.629700
     20 C23          0.9380     4.1750     0.6030 c5         1 O4N       0.367600
     21 C24          1.9420     1.4750     4.9860 c3         1 O4N      -0.087100
     22 C25          6.9370    -2.2800    -2.2020 c3         1 O4N       0.154900
     23 C26         -3.5130    -1.0680     0.5800 c3         1 O4N       0.200100
     24 C27         -3.6200     0.6630    -1.1950 c3         1 O4N       0.216100
     25 C28         -3.6960    -1.7430    -1.7910 c3         1 O4N       0.198000
     26 C30          2.3240     0.4050     2.6760 c3         1 O4N      -0.084400
     27 C31          1.7610     0.0370     1.2760 c3         1 O4N       0.174000
     28 N32          0.8000    -1.0690     1.3180 ns         1 O4N      -0.488900
     29 N33         -3.2080    -0.7220    -0.8370 n3         1 O4N      -0.689600
     30 O34          0.0020     0.4570    -2.0270 o          1 O4N      -0.717000
     31 O35         -1.0530     0.1540     1.7620 o          1 O4N      -0.589100
     32 O36         -1.2410     1.6910    -3.2830 o          1 O4N      -0.717000
     33 O37         -0.2870     4.4770     1.3560 os         1 O4N      -0.370100
     34 O38          0.6000     3.3190    -0.5410 os         1 O4N      -0.330100
     35 O39          6.0330    -1.1720    -2.3580 os         1 O4N      -0.347100
     36 H1          -0.9160    -5.5520     2.2680 ha         1 O4N       0.102000
     37 H2          -3.3130    -5.6320     1.6060 ha         1 O4N       0.101000
     38 H3           0.3160    -3.4270     2.2260 ha         1 O4N       0.111000
     39 H4          -4.4620    -3.5710     0.8640 ha         1 O4N       0.105000
     40 H5          -4.2870     2.2490     0.9440 ha         1 O4N       0.088000
     41 H8          -2.8720     3.9380     2.1330 ha         1 O4N       0.106000
     42 H6           2.5010     1.3520    -1.0250 ha         1 O4N       0.125500
     43 H9           4.3580     0.8080    -2.5730 ha         1 O4N       0.111500
     44 H7           3.5720    -2.0480     1.4300 ha         1 O4N       0.125500
     45 H10          5.4100    -2.5890    -0.1080 ha         1 O4N       0.111500
     46 H31          1.2410     0.9220     0.8800 h1         1 O4N       0.111700
     47 H261        -4.5880    -1.2730     0.6760 h1         1 O4N       0.045200
     48 H262        -3.3350    -0.2170     1.2450 h1         1 O4N       0.045200
     49 H271        -4.6740     0.8210    -0.9280 h1         1 O4N       0.045200
     50 H272        -3.5560     0.8220    -2.2790 h1         1 O4N       0.045200
     51 H191        -3.3190    -1.4940    -5.2950 ha         1 O4N       0.147000
     52 H192        -4.8710    -1.8770    -4.3460 ha         1 O4N       0.147000
     53 H20         -2.0520    -1.3200    -3.1760 ha         1 O4N       0.226000
     54 H281        -4.7930    -1.7170    -1.8370 h1         1 O4N       0.020200
     55 H282        -3.4110    -2.7470    -1.4510 h1         1 O4N       0.020200
     56 H32          1.1320    -1.9960     1.0950 hn         1 O4N       0.312500
     57 H231         1.4030     5.1040     0.2520 h2         1 O4N       0.041200
     58 H232         1.6280     3.6280     1.2580 h2         1 O4N       0.041200
     59 H241         1.1770     1.8760     5.6620 hc         1 O4N       0.021367
     60 H242         2.4500     0.6470     5.4940 hc         1 O4N       0.021367
     61 H243         2.6760     2.2660     4.7920 hc         1 O4N       0.021367
     62 H291         0.5440     0.2360     3.9140 hc         1 O4N       0.054700
     63 H292         0.7730     1.8360     3.2030 hc         1 O4N       0.054700
     64 H251         7.4910    -2.2010    -1.2580 h1         1 O4N       0.030700
     65 H252         6.3920    -3.2330    -2.2130 h1         1 O4N       0.030700
     66 H253         7.6650    -2.2950    -3.0230 h1         1 O4N       0.030700
     67 H301         3.1240     1.1430     2.5360 hc         1 O4N       0.030200
     68 H302         2.7900    -0.4780     3.1280 hc         1 O4N       0.030200
     69 C22         -0.8580     1.3120    -2.1830 c          1 O4N       0.731600
     70 C19         -3.8050    -1.6460    -4.3300 c2         1 O4N      -0.354000
     71 C29          1.2970     0.9940     3.6720 c3         1 O4N      -0.075400
     72 C20         -3.1200    -1.5520    -3.1770 c2         1 O4N      -0.181200
@<TRIPOS>BOND
     1     1     2 ar  
     2     1     3 ar  
     3     1    36 1   
     4     2     4 ar  
     5     2    37 1   
     6     3    11 ar  
     7     3    38 1   
     8     4    14 ar  
     9     4    39 1   
    10     5     8 ar  
    11     5    15 ar  
    12     5    40 1   
    13     6     9 ar  
    14     6    13 ar  
    15     6    42 1   
    16     7    10 ar  
    17     7    13 ar  
    18     7    44 1   
    19     8    16 ar  
    20     8    41 1   
    21     9    18 ar  
    22     9    43 1   
    23    10    18 ar  
    24    10    45 1   
    25    11    14 ar  
    26    11    19 1   
    27    12    15 ar  
    28    12    17 ar  
    29    12    69 1   
    30    13    27 1   
    31    14    23 1   
    32    15    24 1   
    33    16    17 ar  
    34    16    33 1   
    35    17    34 1   
    36    18    35 1   
    37    19    28 1   
    38    19    31 2   
    39    20    33 1   
    40    20    34 1   
    41    20    57 1   
    42    20    58 1   
    43    21    59 1   
    44    21    60 1   
    45    21    61 1   
    46    21    71 1   
    47    22    35 1   
    48    22    64 1   
    49    22    65 1   
    50    22    66 1   
    51    23    29 1   
    52    23    47 1   
    53    23    48 1   
    54    24    29 1   
    55    24    49 1   
    56    24    50 1   
    57    25    29 1   
    58    25    54 1   
    59    25    55 1   
    60    25    72 1   
    61    26    27 1   
    62    26    67 1   
    63    26    68 1   
    64    26    71 1   
    65    27    28 1   
    66    27    46 1   
    67    28    56 1   
    68    30    69 1   
    69    32    69 1   
    70    51    70 1   
    71    52    70 1   
    72    53    72 1   
    73    62    71 1   
    74    63    71 1   
    75    70    72 2   
@<TRIPOS>SUBSTRUCTURE
     1 O4N         1 TEMP              0 ****  ****    0 ROOT
