@<TRIPOS>MOLECULE
O4N
   72    75     1     0     0
SMALL
bcc


@<TRIPOS>ATOM
      1 C1          -1.6610    -4.3930     2.1660 ca         1 O4N      -0.147000
      2 C2          -2.9890    -4.4240     1.7760 ca         1 O4N      -0.127000
      3 C3          -0.9350    -3.2210     2.0130 ca         1 O4N      -0.119000
      4 C4          -3.5710    -3.2830     1.2400 ca         1 O4N      -0.146000
      5 C5          -3.3730     2.4970     0.5820 ca         1 O4N      -0.140000
      6 C6           3.1520     0.6110    -0.8520 ca         1 O4N      -0.066000
      7 C7           3.3320    -1.5400     0.1530 ca         1 O4N      -0.066000
      8 C8          -2.6950     3.4300     1.3750 ca         1 O4N      -0.141000
      9 C9           4.2030     0.3080    -1.6990 ca         1 O4N      -0.196500
     10 C10          4.3800    -1.8700    -0.7010 ca         1 O4N      -0.196500
     11 C11         -1.5130    -2.0730     1.4730 ca         1 O4N      -0.105600
     12 C12         -1.4490     2.1560    -0.8640 ca         1 O4N      -0.065600
     13 C13          2.6930    -0.3080     0.0890 ca         1 O4N      -0.109300
     14 C14         -2.8610    -2.0970     1.0830 ca         1 O4N      -0.016300
     15 C15         -2.7800     1.8620    -0.4990 ca         1 O4N      -0.060300
     16 C16         -1.3890     3.6670     1.0350 ca         1 O4N       0.041100
     17 C17         -0.7930     3.0460    -0.0510 ca         1 O4N       0.055100
     18 C18          4.8240    -0.9400    -1.6360 ca         1 O4N       0.126100
     19 C21         -0.6930    -0.8120     1.4530 c          1 O4N       0.696700
     20 C23          0.7500     4.2150     1.0220 c5         1 O4N       0.321200
     21 C24          2.1570     1.1220     4.8120 c3         1 O4N      -0.087100
     22 C25          6.4730    -2.4150    -2.4910 c3         1 O4N       0.131700
     23 C26         -3.5650    -0.9050     0.4860 c3         1 O4N       0.200100
     24 C27         -3.5320     0.7760    -1.2200 c3         1 O4N       0.216100
     25 C28         -3.4030    -1.5550    -1.8250 c3         1 O4N       0.198000
     26 C30          2.2450     0.3100     2.4340 c3         1 O4N      -0.084400
     27 C31          1.5970     0.0620     1.0620 c3         1 O4N       0.174000
     28 N32          0.5920    -0.9920     1.0880 ns         1 O4N      -0.555900
     29 N33         -3.0620    -0.5500    -0.8290 n3         1 O4N      -0.689600
     30 O34          0.3330     1.0510    -1.9380 o          1 O4N      -0.822300
     31 O35         -1.1470     0.2530     1.8320 o          1 O4N      -0.589100
     32 O36         -1.3670     1.7830    -3.1820 o          1 O4N      -0.822300
     33 O37         -0.5030     4.5270     1.6100 os         1 O4N      -0.346900
     34 O38          0.4800     3.5270    -0.1820 os         1 O4N      -0.306900
     35 O39          5.8320    -1.1560    -2.5060 os         1 O4N      -0.323900
     36 H1          -1.1920    -5.2690     2.5950 ha         1 O4N       0.120000
     37 H2          -3.5740    -5.3280     1.8870 ha         1 O4N       0.119000
     38 H3           0.0940    -3.1970     2.3490 ha         1 O4N       0.129000
     39 H4          -4.6100    -3.3140     0.9320 ha         1 O4N       0.123000
     40 H5          -4.3980     2.2490     0.8340 ha         1 O4N       0.106000
     41 H8          -3.1740     3.9230     2.2100 ha         1 O4N       0.124000
     42 H6           2.6660     1.5730    -0.9310 ha         1 O4N       0.143500
     43 H9           4.5450     1.0370    -2.4240 ha         1 O4N       0.129500
     44 H7           3.0300    -2.2810     0.8860 ha         1 O4N       0.143500
     45 H10          4.8340    -2.8480    -0.6130 ha         1 O4N       0.129500
     46 H31          1.1160     0.9760     0.7080 h1         1 O4N       0.111700
     47 H261        -4.6480    -1.1180     0.4590 h1         1 O4N       0.045200
     48 H262        -3.4370    -0.0460     1.1420 h1         1 O4N       0.045200
     49 H271        -4.6140     0.8830    -1.0320 h1         1 O4N       0.045200
     50 H272        -3.3920     0.8900    -2.2920 h1         1 O4N       0.045200
     51 H191        -1.2950    -2.6300    -4.3840 ha         1 O4N       0.097000
     52 H192        -2.2060    -3.6510    -3.1500 ha         1 O4N       0.097000
     53 H20         -2.1680    -0.5950    -3.3920 ha         1 O4N       0.176000
     54 H281        -4.4360    -1.4190    -2.1910 h1         1 O4N       0.020200
     55 H282        -3.3820    -2.5430    -1.3600 h1         1 O4N       0.020200
     56 H32          0.8250    -1.8610     0.6380 hn         1 O4N       0.312500
     57 H231         1.3010     5.1320     0.8140 h2         1 O4N       0.041200
     58 H232         1.3270     3.5710     1.7010 h2         1 O4N       0.041200
     59 H241         1.5190     1.4860     5.6180 hc         1 O4N       0.021367
     60 H242         2.6810     0.2380     5.1810 hc         1 O4N       0.021367
     61 H243         2.9090     1.8890     4.6140 hc         1 O4N       0.021367
     62 H291         0.5940     0.0530     3.8010 hc         1 O4N       0.054700
     63 H292         0.8000     1.6930     3.2380 hc         1 O4N       0.054700
     64 H251         6.9590    -2.6170    -1.5320 h1         1 O4N       0.030700
     65 H252         5.7780    -3.2300    -2.7090 h1         1 O4N       0.030700
     66 H253         7.2320    -2.3870    -3.2680 h1         1 O4N       0.030700
     67 H301         3.0410     1.0480     2.2780 hc         1 O4N       0.030200
     68 H302         2.7460    -0.6100     2.7520 hc         1 O4N       0.030200
     69 C22         -0.7660     1.5950    -2.1000 c          1 O4N       0.942200
     70 C19         -1.9610    -2.6650    -3.5310 c2         1 O4N      -0.254000
     71 C29          1.3470     0.8040     3.5610 c3         1 O4N      -0.075400
     72 C20         -2.4520    -1.5590    -2.9840 c2         1 O4N      -0.131200
@<TRIPOS>BOND
     1     1     2 ar  
     2     1     3 ar  
     3     1    36 1   
     4     2     4 ar  
     5     2    37 1   
     6     3    11 ar  
     7     3    38 1   
     8     4    14 ar  
     9     4    39 1   
    10     5     8 ar  
    11     5    15 ar  
    12     5    40 1   
    13     6     9 ar  
    14     6    13 ar  
    15     6    42 1   
    16     7    10 ar  
    17     7    13 ar  
    18     7    44 1   
    19     8    16 ar  
    20     8    41 1   
    21     9    18 ar  
    22     9    43 1   
    23    10    18 ar  
    24    10    45 1   
    25    11    14 ar  
    26    11    19 1   
    27    12    15 ar  
    28    12    17 ar  
    29    12    69 1   
    30    13    27 1   
    31    14    23 1   
    32    15    24 1   
    33    16    17 ar  
    34    16    33 1   
    35    17    34 1   
    36    18    35 1   
    37    19    28 1   
    38    19    31 2   
    39    20    33 1   
    40    20    34 1   
    41    20    57 1   
    42    20    58 1   
    43    21    59 1   
    44    21    60 1   
    45    21    61 1   
    46    21    71 1   
    47    22    35 1   
    48    22    64 1   
    49    22    65 1   
    50    22    66 1   
    51    23    29 1   
    52    23    47 1   
    53    23    48 1   
    54    24    29 1   
    55    24    49 1   
    56    24    50 1   
    57    25    29 1   
    58    25    54 1   
    59    25    55 1   
    60    25    72 1   
    61    26    27 1   
    62    26    67 1   
    63    26    68 1   
    64    26    71 1   
    65    27    28 1   
    66    27    46 1   
    67    28    56 1   
    68    30    69 1   
    69    32    69 1   
    70    51    70 1   
    71    52    70 1   
    72    53    72 1   
    73    62    71 1   
    74    63    71 1   
    75    70    72 2   
@<TRIPOS>SUBSTRUCTURE
     1 O4N         1 TEMP              0 ****  ****    0 ROOT
