@<TRIPOS>MOLECULE
O4O
   55    58     1     0     0
SMALL
No Charge or Current Charge


@<TRIPOS>ATOM
      1 C10          2.2270    -2.0030    83.9110 ca         1 O4O      -0.134600
      2 C13          1.1520    -0.5310    85.5520 ca         1 O4O      -0.122000
      3 C15         -0.0610    -2.4480    84.6380 ca         1 O4O       0.008600
      4 C24         -2.9910    -3.8200    83.3340 c6         1 O4O      -0.087700
      5 C26         -3.6030    -2.3560    81.2910 c6         1 O4O       0.155600
      6 C28         -4.5490    -4.5780    81.4130 c6         1 O4O       0.155600
      7 C1           5.2330    -5.6250    82.0520 c6         1 O4O      -0.073200
      8 C2           4.6770    -6.5260    83.1740 c6         1 O4O      -0.063400
      9 C3           4.7870    -5.7920    84.5240 c6         1 O4O      -0.182400
     10 C4           4.0770    -4.4330    84.5050 c          1 O4O       0.601300
     11 C5           4.1480    -3.6510    83.2360 ce         1 O4O      -0.481400
     12 C6           4.6690    -4.2140    82.1230 c2         1 O4O       0.276900
     13 C9           3.5050    -2.3080    83.1680 c          1 O4O       0.637900
     14 C12          2.2390    -0.8430    84.7240 ca         1 O4O      -0.059000
     15 C14          0.0090    -1.3260    85.4680 ca         1 O4O       0.028600
     16 C16          1.0700    -2.8460    83.8700 ca         1 O4O      -0.014300
     17 C19         -1.8280    -2.5350    86.1710 c          1 O4O       0.585000
     18 C25         -2.5260    -2.6910    82.3620 c6         1 O4O      -0.104400
     19 C29         -3.5540    -5.0230    82.5230 c6         1 O4O      -0.104400
     20 N18         -1.0550    -1.3990    86.4030 n          1 O4O      -0.295000
     21 N20         -1.2260    -3.1810    85.0830 n          1 O4O      -0.299000
     22 O7           4.7450    -3.5710    80.9550 oh         1 O4O      -0.545100
     23 O11          3.9420    -1.4900    82.3660 o          1 O4O      -0.604100
     24 O21         -2.8510    -2.8630    86.7560 o          1 O4O      -0.569000
     25 O27         -4.7920    -3.1550    81.4760 os         1 O4O      -0.459000
     26 H1           1.2130     0.2930    86.2580 ha         1 O4O       0.127000
     27 H2           1.1880    -5.0100    83.6210 hc         1 O4O       0.047367
     28 H3           0.1160    -4.2130    82.4550 hc         1 O4O       0.047367
     29 H4           1.8200    -4.1110    82.2310 hc         1 O4O       0.047367
     30 H5          -2.5380    -0.3550    87.5020 h1         1 O4O       0.052700
     31 H6          -0.9090    -0.3700    88.2390 h1         1 O4O       0.052700
     32 H7          -1.2430     0.6650    86.8190 h1         1 O4O       0.052700
     33 H8          -3.8150    -3.4060    83.9340 hc         1 O4O       0.081700
     34 H9          -3.2010    -2.5350    80.2830 h1         1 O4O       0.044950
     35 H10         -3.8780    -1.2930    81.3580 h1         1 O4O       0.044950
     36 H11         -5.5050    -5.1080    81.5320 h1         1 O4O       0.044950
     37 H12         -4.1450    -4.8300    80.4210 h1         1 O4O       0.044950
     38 H13          5.0100    -6.0740    81.0750 hc         1 O4O       0.081200
     39 H14          6.3280    -5.5720    82.1260 hc         1 O4O       0.081200
     40 H15          3.6240    -6.7690    82.9700 hc         1 O4O       0.055700
     41 H16          5.2240    -7.4780    83.2050 hc         1 O4O       0.055700
     42 H17          4.4350    -6.3920    85.3730 hc         1 O4O       0.073200
     43 H18          5.8520    -5.5780    84.6860 hc         1 O4O       0.073200
     44 H19          3.1340    -0.2250    84.7700 ha         1 O4O       0.125000
     45 H20         -2.4370    -4.8940    85.1290 h1         1 O4O       0.063700
     46 H21         -1.2000    -4.9440    83.9060 h1         1 O4O       0.063700
     47 H22         -1.6050    -2.9840    81.8440 hc         1 O4O       0.048450
     48 H23         -2.2850    -1.7800    82.9260 hc         1 O4O       0.048450
     49 H24         -4.0540    -5.7280    83.2020 hc         1 O4O       0.048450
     50 H25         -2.7290    -5.5800    82.0580 hc         1 O4O       0.048450
     51 H26          4.4820    -2.6390    81.1700 ho         1 O4O       0.547000
     52 C17          1.0510    -4.1120    83.0080 c3         1 O4O      -0.050800
     53 C22         -1.4620    -0.2990    87.2950 c3         1 O4O       0.106300
     54 C23         -1.9240    -4.2780    84.3790 c3         1 O4O       0.129000
     55 O8           3.5090    -4.0270    85.5050 o          1 O4O      -0.534100
@<TRIPOS>BOND
     1     1    13 1   
     2     1    14 ar  
     3     1    16 ar  
     4     2    14 ar  
     5     2    15 ar  
     6     2    26 1   
     7     3    15 ar  
     8     3    16 ar  
     9     3    21 1   
    10     4    18 1   
    11     4    19 1   
    12     4    33 1   
    13     4    54 1   
    14     5    18 1   
    15     5    25 1   
    16     5    34 1   
    17     5    35 1   
    18     6    19 1   
    19     6    25 1   
    20     6    36 1   
    21     6    37 1   
    22     7     8 1   
    23     7    12 1   
    24     7    38 1   
    25     7    39 1   
    26     8     9 1   
    27     8    40 1   
    28     8    41 1   
    29     9    10 1   
    30     9    42 1   
    31     9    43 1   
    32    10    11 1   
    33    10    55 2   
    34    11    12 2   
    35    11    13 1   
    36    12    22 1   
    37    13    23 2   
    38    14    44 1   
    39    15    20 1   
    40    16    52 1   
    41    17    20 1   
    42    17    21 1   
    43    17    24 2   
    44    18    47 1   
    45    18    48 1   
    46    19    49 1   
    47    19    50 1   
    48    20    53 1   
    49    21    54 1   
    50    22    51 1   
    51    27    52 1   
    52    28    52 1   
    53    29    52 1   
    54    30    53 1   
    55    31    53 1   
    56    32    53 1   
    57    45    54 1   
    58    46    54 1   
@<TRIPOS>SUBSTRUCTURE
     1 O4O         1 TEMP              0 ****  ****    0 ROOT
