@<TRIPOS>MOLECULE
O4O
   55    58     1     0     0
SMALL
abcg2


@<TRIPOS>ATOM
      1 C10          2.1170    -2.1970    83.9300 ca         1 O4O      -0.134600
      2 C13          1.1910    -0.6360    85.5430 ca         1 O4O      -0.122000
      3 C15         -0.0700    -2.5890    84.7740 ca         1 O4O       0.008600
      4 C24         -3.0950    -3.7040    83.3900 c6         1 O4O      -0.087700
      5 C26         -3.5650    -2.4170    81.2980 c6         1 O4O       0.155600
      6 C28         -4.5580    -4.5620    81.5180 c6         1 O4O       0.155600
      7 C1           5.7530    -5.3080    82.1350 c6         1 O4O      -0.073200
      8 C2           5.0240    -6.4210    82.8750 c6         1 O4O      -0.063400
      9 C3           4.6950    -5.9620    84.2870 c6         1 O4O      -0.182400
     10 C4           3.9470    -4.6430    84.3460 c          1 O4O       0.601300
     11 C5           4.0680    -3.7340    83.1970 ce         1 O4O      -0.481400
     12 C6           5.0030    -4.0230    82.2040 c2         1 O4O       0.276900
     13 C9           3.3030    -2.4990    83.0820 c          1 O4O       0.637900
     14 C12          2.2100    -1.0240    84.6860 ca         1 O4O      -0.059000
     15 C14          0.0620    -1.4340    85.5730 ca         1 O4O       0.028600
     16 C16          0.9680    -3.0150    83.9450 ca         1 O4O      -0.014300
     17 C19         -1.9710    -2.3160    86.0040 c          1 O4O       0.585000
     18 C25         -2.4640    -3.0100    82.1840 c6         1 O4O      -0.104400
     19 C29         -3.9640    -4.8760    82.8980 c6         1 O4O      -0.104400
     20 N18         -1.0960    -1.2940    86.3100 n          1 O4O      -0.295000
     21 N20         -1.3410    -3.1070    85.0550 n          1 O4O      -0.299000
     22 O7           5.2810    -3.1720    81.2490 oh         1 O4O      -0.545100
     23 O11          3.6370    -1.6300    82.2440 o          1 O4O      -0.604100
     24 O21         -3.0890    -2.4950    86.4780 o          1 O4O      -0.569000
     25 O27         -4.7890    -3.1620    81.3690 os         1 O4O      -0.459000
     26 H1           1.2740     0.2520    86.1550 ha         1 O4O       0.127000
     27 H2           0.8260    -5.1550    83.7390 hc         1 O4O       0.047367
     28 H3           0.0050    -4.2580    82.4660 hc         1 O4O       0.047367
     29 H4           1.7490    -4.3720    82.4650 hc         1 O4O       0.047367
     30 H5          -2.3640    -0.4020    87.6700 h1         1 O4O       0.052700
     31 H6          -0.6390    -0.2560    88.0700 h1         1 O4O       0.052700
     32 H7          -1.3370     0.7340    86.7690 h1         1 O4O       0.052700
     33 H8          -3.7430    -2.9810    83.8900 hc         1 O4O       0.081700
     34 H9          -3.2290    -2.3660    80.2550 h1         1 O4O       0.044950
     35 H10         -3.8200    -1.4090    81.6280 h1         1 O4O       0.044950
     36 H11         -5.5230    -5.0500    81.3820 h1         1 O4O       0.044950
     37 H12         -3.8920    -4.9110    80.7200 h1         1 O4O       0.044950
     38 H13          5.9190    -5.5450    81.0820 hc         1 O4O       0.081200
     39 H14          6.7420    -5.1370    82.5780 hc         1 O4O       0.081200
     40 H15          4.1040    -6.6710    82.3410 hc         1 O4O       0.055700
     41 H16          5.6410    -7.3200    82.9000 hc         1 O4O       0.055700
     42 H17          4.0990    -6.6940    84.8320 hc         1 O4O       0.073200
     43 H18          5.6200    -5.8190    84.8580 hc         1 O4O       0.073200
     44 H19          3.1120    -0.4310    84.6210 ha         1 O4O       0.125000
     45 H20         -2.6140    -4.7230    85.2210 h1         1 O4O       0.063700
     46 H21         -1.3820    -4.8930    83.9860 h1         1 O4O       0.063700
     47 H22         -1.8740    -3.7350    81.6170 hc         1 O4O       0.048450
     48 H23         -1.7850    -2.2130    82.4910 hc         1 O4O       0.048450
     49 H24         -4.7570    -5.0730    83.6220 hc         1 O4O       0.048450
     50 H25         -3.3590    -5.7850    82.8230 hc         1 O4O       0.048450
     51 H26          4.7240    -2.3400    81.4470 ho         1 O4O       0.547000
     52 C17          0.8820    -4.2650    83.1100 c3         1 O4O      -0.050800
     53 C22         -1.3710    -0.2390    87.2610 c3         1 O4O       0.106300
     54 C23         -2.0840    -4.1950    84.4270 c3         1 O4O       0.129000
     55 O8           3.3180    -4.3550    85.3570 o          1 O4O      -0.534100
@<TRIPOS>BOND
     1     1    13 1   
     2     1    14 ar  
     3     1    16 ar  
     4     2    14 ar  
     5     2    15 ar  
     6     2    26 1   
     7     3    15 ar  
     8     3    16 ar  
     9     3    21 1   
    10     4    18 1   
    11     4    19 1   
    12     4    33 1   
    13     4    54 1   
    14     5    18 1   
    15     5    25 1   
    16     5    34 1   
    17     5    35 1   
    18     6    19 1   
    19     6    25 1   
    20     6    36 1   
    21     6    37 1   
    22     7     8 1   
    23     7    12 1   
    24     7    38 1   
    25     7    39 1   
    26     8     9 1   
    27     8    40 1   
    28     8    41 1   
    29     9    10 1   
    30     9    42 1   
    31     9    43 1   
    32    10    11 1   
    33    10    55 2   
    34    11    12 2   
    35    11    13 1   
    36    12    22 1   
    37    13    23 2   
    38    14    44 1   
    39    15    20 1   
    40    16    52 1   
    41    17    20 1   
    42    17    21 1   
    43    17    24 2   
    44    18    47 1   
    45    18    48 1   
    46    19    49 1   
    47    19    50 1   
    48    20    53 1   
    49    21    54 1   
    50    22    51 1   
    51    27    52 1   
    52    28    52 1   
    53    29    52 1   
    54    30    53 1   
    55    31    53 1   
    56    32    53 1   
    57    45    54 1   
    58    46    54 1   
@<TRIPOS>SUBSTRUCTURE
     1 O4O         1 TEMP              0 ****  ****    0 ROOT
