@<TRIPOS>MOLECULE
O4Q
   14    13     1     0     0
SMALL
bcc


@<TRIPOS>ATOM
      1 C24         -2.3520    -0.3280     0.2580 c          1 O4Q       0.576900
      2 C26          0.0040     0.1650    -0.3410 c2         1 O4Q      -0.103400
      3 C28          0.9880    -0.7260    -0.2940 c2         1 O4Q      -0.056600
      4 C25         -1.3400    -0.2780    -0.8570 c3         1 O4Q      -0.170200
      5 C27          0.0970     1.5900     0.0960 c3         1 O4Q      -0.059900
      6 O30         -3.4360     0.1950     0.2280 o          1 O4Q      -0.506100
      7 CL1          2.5830    -0.3810     0.2890 cl         1 O4Q      -0.127400
      8 H1          -2.0220    -0.9120     1.1360 h4         1 O4Q      -0.011800
      9 H281         0.8730    -1.7490    -0.6260 h4         1 O4Q       0.151000
     10 H251        -1.2770    -1.2920    -1.2680 hc         1 O4Q       0.075200
     11 H252        -1.6940     0.3870    -1.6480 hc         1 O4Q       0.075200
     12 H272        -0.2390     2.2510    -0.7050 hc         1 O4Q       0.052367
     13 H271        -0.5620     1.7770     0.9490 hc         1 O4Q       0.052367
     14 H273         1.1040     1.8820     0.3820 hc         1 O4Q       0.052367
@<TRIPOS>BOND
     1     1     4 1   
     2     1     6 2   
     3     1     8 1   
     4     2     3 2   
     5     2     4 1   
     6     2     5 1   
     7     3     7 1   
     8     3     9 1   
     9     4    10 1   
    10     4    11 1   
    11     5    12 1   
    12     5    13 1   
    13     5    14 1   
@<TRIPOS>SUBSTRUCTURE
     1 O4Q         1 TEMP              0 ****  ****    0 ROOT
