@<TRIPOS>MOLECULE
O4Q
   14    13     1     0     0
SMALL
No Charge or Current Charge


@<TRIPOS>ATOM
      1 C24         -2.3990    -0.4190     0.2920 c          1 O4Q       0.576900
      2 C26          0.0160     0.1450    -0.3260 c2         1 O4Q      -0.103400
      3 C28          1.0560    -0.7040    -0.2250 c2         1 O4Q      -0.031000
      4 C25         -1.3540    -0.3080    -0.8250 c3         1 O4Q      -0.170200
      5 C27          0.0760     1.6320     0.0050 c3         1 O4Q      -0.059900
      6 O30         -2.9810     0.5470     0.7740 o          1 O4Q      -0.506100
      7 Cl1          2.6590    -0.2710     0.3230 cl         1 O4Q      -0.203000
      8 H1          -2.6050    -1.4510     0.6520 h4         1 O4Q      -0.011800
      9 H281         0.9750    -1.7600    -0.4840 h4         1 O4Q       0.201000
     10 H251        -1.2560    -1.3050    -1.2710 hc         1 O4Q       0.075200
     11 H252        -1.7230     0.3890    -1.5870 hc         1 O4Q       0.075200
     12 H272        -0.2210     2.2400    -0.8580 hc         1 O4Q       0.052367
     13 H271        -0.5950     1.8840     0.8340 hc         1 O4Q       0.052367
     14 H273         1.0790     1.9610     0.2960 hc         1 O4Q       0.052367
@<TRIPOS>BOND
     1     1     4 1   
     2     1     6 2   
     3     1     8 1   
     4     2     3 2   
     5     2     4 1   
     6     2     5 1   
     7     3     7 1   
     8     3     9 1   
     9     4    10 1   
    10     4    11 1   
    11     5    12 1   
    12     5    13 1   
    13     5    14 1   
@<TRIPOS>SUBSTRUCTURE
     1 O4Q         1 TEMP              0 ****  ****    0 ROOT
