@<TRIPOS>MOLECULE
O4R
   53    55     1     0     0
SMALL
No Charge or Current Charge


@<TRIPOS>ATOM
      1 C1         -21.1010   -26.6050    -1.3270 c          1 O4R       0.592100
      2 C2         -21.2390   -27.8000    -2.2800 c3         1 O4R       0.037600
      3 C3         -21.4620   -24.1110    -1.1410 c3         1 O4R       0.102000
      4 C4         -20.2540   -23.2440    -1.6020 c6         1 O4R      -0.083700
      5 C5         -20.2800   -21.8490    -0.9190 c6         1 O4R      -0.091900
      6 C6         -19.0600   -20.9930    -1.3370 c6         1 O4R       0.098500
      7 C10        -20.1890   -20.2560     2.3170 ca         1 O4R      -0.170000
      8 C13        -18.8550   -22.3530     3.6090 ca         1 O4R      -0.077000
      9 O1         -20.6300   -26.7070    -0.2020 o          1 O4R      -0.581100
     10 N1         -21.5420   -25.4000    -1.8370 ns         1 O4R      -0.500900
     11 N2         -17.7850   -21.7060    -1.0350 n          1 O4R      -0.402800
     12 C7         -16.8720   -21.4000     0.0240 c          1 O4R       0.590100
     13 O2         -16.0280   -22.2290     0.3560 o          1 O4R      -0.613100
     14 C8         -16.9460   -19.9120     0.6110 c5         1 O4R       0.109000
     15 O3         -18.2280   -19.5180     1.2160 os         1 O4R      -0.366100
     16 C9         -18.8140   -20.4360     2.0840 ca         1 O4R       0.135100
     17 C11        -20.9000   -21.1200     3.1670 ca         1 O4R      -0.077000
     18 C12        -20.2320   -22.1730     3.8090 ca         1 O4R      -0.145000
     19 C14        -18.1430   -21.4880     2.7590 ca         1 O4R      -0.170000
     20 C15        -16.6810   -18.8710    -0.5460 c5         1 O4R      -0.081900
     21 C16        -15.2020   -18.4610    -0.3470 c5         1 O4R      -0.077400
     22 C17        -15.1910   -18.2460     1.1790 c5         1 O4R      -0.077400
     23 C18        -15.8000   -19.5880     1.6610 c5         1 O4R      -0.081900
     24 C19        -17.7100   -23.0070    -1.7530 c6         1 O4R       0.098500
     25 C20        -18.8820   -23.9320    -1.3460 c6         1 O4R      -0.091900
     26 H1         -21.0540   -28.7240    -1.7210 h1         1 O4R       0.084200
     27 H2         -22.2570   -27.8170    -2.6870 h1         1 O4R       0.084200
     28 Cl1        -20.0670   -27.7350    -3.6800 cl         1 O4R      -0.255000
     29 H4         -22.3900   -23.5580    -1.3370 h1         1 O4R       0.063700
     30 H5         -21.3970   -24.2760    -0.0570 h1         1 O4R       0.063700
     31 H6         -20.3730   -23.0980    -2.6850 hc         1 O4R       0.041700
     32 H7         -21.2070   -21.3180    -1.1750 hc         1 O4R       0.058950
     33 H8         -20.2820   -21.9770     0.1710 hc         1 O4R       0.058950
     34 H9         -19.1090   -20.8150    -2.4220 h1         1 O4R       0.058700
     35 H10        -19.1240   -20.0060    -0.8710 h1         1 O4R       0.058700
     36 H12        -18.3350   -23.1610     4.1190 ha         1 O4R       0.114500
     37 H13        -21.9030   -25.4130    -2.7840 hn         1 O4R       0.311500
     38 H14        -21.9660   -20.9730     3.3260 ha         1 O4R       0.114500
     39 H15        -20.7790   -22.8440     4.4680 ha         1 O4R       0.117000
     40 H16        -17.0790   -21.6570     2.6570 ha         1 O4R       0.127500
     41 H17        -17.3380   -17.9970    -0.4610 hc         1 O4R       0.065200
     42 H18        -16.8390   -19.2780    -1.5500 hc         1 O4R       0.065200
     43 H19        -14.5080   -19.2510    -0.6590 hc         1 O4R       0.049700
     44 H20        -14.9420   -17.5510    -0.9010 hc         1 O4R       0.049700
     45 H21        -14.1810   -18.0800     1.5730 hc         1 O4R       0.049700
     46 H22        -15.8060   -17.3880     1.4760 hc         1 O4R       0.049700
     47 H23        -16.1710   -19.4950     2.6870 hc         1 O4R       0.065200
     48 H24        -15.0240   -20.3600     1.6830 hc         1 O4R       0.065200
     49 H25        -16.7560   -23.5160    -1.5600 h1         1 O4R       0.058700
     50 H26        -17.7550   -22.8190    -2.8350 h1         1 O4R       0.058700
     51 H27        -18.7860   -24.1950    -0.2840 hc         1 O4R       0.058950
     52 H28        -18.8110   -24.8700    -1.9120 hc         1 O4R       0.058950
     53 H11        -20.7130   -19.4440     1.8200 ha         1 O4R       0.127500
@<TRIPOS>BOND
     1     1     2 1   
     2     1     9 2   
     3     1    10 1   
     4     2    26 1   
     5     2    27 1   
     6     2    28 1   
     7     3     4 1   
     8     3    10 1   
     9     3    29 1   
    10     3    30 1   
    11     4     5 1   
    12     4    25 1   
    13     4    31 1   
    14     5     6 1   
    15     5    32 1   
    16     5    33 1   
    17     6    11 1   
    18     6    34 1   
    19     6    35 1   
    20     7    16 ar  
    21     7    17 ar  
    22     7    53 1   
    23     8    18 ar  
    24     8    19 ar  
    25     8    36 1   
    26    10    37 1   
    27    11    12 1   
    28    11    24 1   
    29    12    13 2   
    30    12    14 1   
    31    14    15 1   
    32    14    20 1   
    33    14    23 1   
    34    15    16 1   
    35    16    19 ar  
    36    17    18 ar  
    37    17    38 1   
    38    18    39 1   
    39    19    40 1   
    40    20    21 1   
    41    20    41 1   
    42    20    42 1   
    43    21    22 1   
    44    21    43 1   
    45    21    44 1   
    46    22    23 1   
    47    22    45 1   
    48    22    46 1   
    49    23    47 1   
    50    23    48 1   
    51    24    25 1   
    52    24    49 1   
    53    24    50 1   
    54    25    51 1   
    55    25    52 1   
@<TRIPOS>SUBSTRUCTURE
     1 O4R         1 TEMP              0 ****  ****    0 ROOT
