@<TRIPOS>MOLECULE
O4R
   53    55     1     0     0
SMALL
abcg2


@<TRIPOS>ATOM
      1 C1         -21.3320   -26.4170    -1.0820 c          1 O4R       0.592100
      2 C2         -21.3960   -27.6800    -1.9250 c3         1 O4R       0.037600
      3 C3         -21.4740   -23.9510    -1.1810 c3         1 O4R       0.102000
      4 C4         -20.2130   -23.2230    -1.6470 c6         1 O4R      -0.083700
      5 C5         -20.1970   -21.7910    -1.1080 c6         1 O4R      -0.091900
      6 C6         -18.9120   -21.0610    -1.4940 c6         1 O4R       0.098500
      7 C10        -19.9520   -20.2150     2.3640 ca         1 O4R      -0.170000
      8 C13        -18.9010   -22.6450     3.1810 ca         1 O4R      -0.077000
      9 O1         -21.0480   -26.4720     0.1130 o          1 O4R      -0.581100
     10 N1         -21.5970   -25.2840    -1.7510 ns         1 O4R      -0.500900
     11 N2         -17.7330   -21.8180    -1.0700 n          1 O4R      -0.402800
     12 C7         -16.7240   -21.3960    -0.2810 c          1 O4R       0.590100
     13 O2         -15.7050   -22.0720    -0.1080 o          1 O4R      -0.613100
     14 C8         -16.8250   -20.0160     0.4140 c5         1 O4R       0.109000
     15 O3         -18.1290   -19.7710     0.9900 os         1 O4R      -0.366100
     16 C9         -18.7040   -20.6250     1.8860 ca         1 O4R       0.135100
     17 C11        -20.6660   -21.0220     3.2350 ca         1 O4R      -0.077000
     18 C12        -20.1470   -22.2480     3.6480 ca         1 O4R      -0.145000
     19 C14        -18.1700   -21.8430     2.3070 ca         1 O4R      -0.170000
     20 C15        -16.6020   -18.8590    -0.6050 c5         1 O4R      -0.081900
     21 C16        -15.5470   -17.9220     0.0180 c5         1 O4R      -0.077400
     22 C17        -15.5520   -18.2790     1.5070 c5         1 O4R      -0.077400
     23 C18        -15.7450   -19.7950     1.4850 c5         1 O4R      -0.081900
     24 C19        -17.6890   -23.1680    -1.6370 c6         1 O4R       0.098500
     25 C20        -18.9330   -23.9510    -1.2310 c6         1 O4R      -0.091900
     26 H1         -21.7830   -28.5020    -1.3310 h1         1 O4R       0.084200
     27 H2         -21.9670   -27.5600    -2.8400 h1         1 O4R       0.084200
     28 CL1        -19.7120   -28.1380    -2.4180 cl         1 O4R      -0.255000
     29 H4         -22.3580   -23.3750    -1.4610 h1         1 O4R       0.063700
     30 H5         -21.4680   -24.0560    -0.0960 h1         1 O4R       0.063700
     31 H6         -20.2350   -23.1750    -2.7430 hc         1 O4R       0.041700
     32 H7         -21.0500   -21.2300    -1.4960 hc         1 O4R       0.058950
     33 H8         -20.2850   -21.8100    -0.0190 hc         1 O4R       0.058950
     34 H9         -18.8610   -20.9600    -2.5830 h1         1 O4R       0.058700
     35 H10        -18.8980   -20.0690    -1.0650 h1         1 O4R       0.058700
     36 H12        -18.4800   -23.5930     3.4940 ha         1 O4R       0.114500
     37 H13        -21.7960   -25.3490    -2.7380 hn         1 O4R       0.311500
     38 H14        -21.6360   -20.6940     3.5900 ha         1 O4R       0.114500
     39 H15        -20.7060   -22.8820     4.3240 ha         1 O4R       0.117000
     40 H16        -17.2060   -22.1840     1.9640 ha         1 O4R       0.127500
     41 H17        -17.5520   -18.3480    -0.7480 hc         1 O4R       0.065200
     42 H18        -16.2880   -19.2440    -1.5750 hc         1 O4R       0.065200
     43 H19        -14.5630   -18.1360    -0.4040 hc         1 O4R       0.049700
     44 H20        -15.7680   -16.8730    -0.1760 hc         1 O4R       0.049700
     45 H21        -14.6370   -17.9820     2.0210 hc         1 O4R       0.049700
     46 H22        -16.3920   -17.7960     2.0140 hc         1 O4R       0.049700
     47 H23        -16.0280   -20.2210     2.4460 hc         1 O4R       0.065200
     48 H24        -14.8280   -20.2820     1.1590 hc         1 O4R       0.065200
     49 H25        -16.7850   -23.6550    -1.2860 h1         1 O4R       0.058700
     50 H26        -17.6340   -23.0840    -2.7280 h1         1 O4R       0.058700
     51 H27        -18.9280   -24.0880    -0.1460 hc         1 O4R       0.058950
     52 H28        -18.8910   -24.9420    -1.6880 hc         1 O4R       0.058950
     53 H11        -20.3520   -19.2670     2.0260 ha         1 O4R       0.127500
@<TRIPOS>BOND
     1     1     2 1   
     2     1     9 2   
     3     1    10 1   
     4     2    26 1   
     5     2    27 1   
     6     2    28 1   
     7     3     4 1   
     8     3    10 1   
     9     3    29 1   
    10     3    30 1   
    11     4     5 1   
    12     4    25 1   
    13     4    31 1   
    14     5     6 1   
    15     5    32 1   
    16     5    33 1   
    17     6    11 1   
    18     6    34 1   
    19     6    35 1   
    20     7    16 ar  
    21     7    17 ar  
    22     7    53 1   
    23     8    18 ar  
    24     8    19 ar  
    25     8    36 1   
    26    10    37 1   
    27    11    12 1   
    28    11    24 1   
    29    12    13 2   
    30    12    14 1   
    31    14    15 1   
    32    14    20 1   
    33    14    23 1   
    34    15    16 1   
    35    16    19 ar  
    36    17    18 ar  
    37    17    38 1   
    38    18    39 1   
    39    19    40 1   
    40    20    21 1   
    41    20    41 1   
    42    20    42 1   
    43    21    22 1   
    44    21    43 1   
    45    21    44 1   
    46    22    23 1   
    47    22    45 1   
    48    22    46 1   
    49    23    47 1   
    50    23    48 1   
    51    24    25 1   
    52    24    49 1   
    53    24    50 1   
    54    25    51 1   
    55    25    52 1   
@<TRIPOS>SUBSTRUCTURE
     1 O4R         1 TEMP              0 ****  ****    0 ROOT
