@<TRIPOS>MOLECULE
O4S
   69    73     1     0     0
SMALL
bcc


@<TRIPOS>ATOM
      1 C2           1.4640     3.1790    -0.3570 c          1 O4S       0.688500
      2 C3           1.9480     0.9260     0.3680 ca         1 O4S       0.039600
      3 C11         -0.3350     1.8290     0.5160 c3         1 O4S       0.004000
      4 C12          4.2150     0.1710     0.6730 ca         1 O4S      -0.104000
      5 C13         -1.0930     1.2700    -0.6850 c          1 O4S       0.644100
      6 C15          3.7700    -1.1330     0.8240 ca         1 O4S      -0.121000
      7 C19          3.9810     3.2550     1.4860 c6         1 O4S       0.183800
      8 C20         -3.2280     0.3280    -1.4260 c3         1 O4S       0.155300
      9 C21         -4.5240    -0.0980    -0.7960 ca         1 O4S      -0.122300
     10 C22         -6.9250    -0.8730     0.4540 ca         1 O4S      -0.066300
     11 C23         -5.6730     0.6730    -0.9250 ca         1 O4S      -0.111000
     12 C24         -4.5870    -1.2630    -0.0340 ca         1 O4S      -0.111000
     13 C25          3.4570     4.6090    -1.0260 c6         1 O4S      -0.059400
     14 C26         -6.8570     0.2880    -0.3110 ca         1 O4S      -0.129500
     15 C27         -5.7690    -1.6430     0.5810 ca         1 O4S      -0.129500
     16 C28          3.4580    -3.7240    -0.7850 c5         1 O4S       0.100500
     17 C29          1.9650    -5.1730     0.4560 c5         1 O4S       0.100500
     18 C30         -8.2190    -1.3070     1.0840 c3         1 O4S      -0.034100
     19 C31          4.5690     4.6250     1.2070 c6         1 O4S      -0.079400
     20 C32          3.2260    -5.0100    -1.5670 c5         1 O4S      -0.096400
     21 C33          2.8490    -6.0000    -0.4720 c5         1 O4S      -0.096400
     22 C34          3.6790     5.4070     0.2520 c6         1 O4S      -0.078400
     23 C35         -9.0610    -2.1600     0.1360 c3         1 O4S      -0.086100
     24 C5           3.3200     1.2000     0.4260 ca         1 O4S       0.077600
     25 C6           2.9350     3.2060    -0.7480 c6         1 O4S       0.118500
     26 C7           1.8610    -2.7920     0.9160 c          1 O4S       0.683700
     27 C8           1.5040    -0.3830     0.5090 ca         1 O4S      -0.110000
     28 C9           2.4120    -1.4150     0.7200 ca         1 O4S      -0.123600
     29 N1           1.0630     2.0060     0.2240 n          1 O4S      -0.362000
     30 N10          2.4690    -3.8090     0.2900 n          1 O4S      -0.476800
     31 N17         -2.3370     0.8650    -0.4100 ns         1 O4S      -0.574900
     32 N4           3.7600     2.5220     0.2350 nh         1 O4S      -0.617000
     33 O14          0.6920     4.0970    -0.5500 o          1 O4S      -0.603500
     34 O16          0.8790    -2.9620     1.6330 o          1 O4S      -0.610100
     35 O18         -0.5900     1.2110    -1.7950 o          1 O4S      -0.594100
     36 H39         -0.7680     2.7920     0.7890 h1         1 O4S       0.082700
     37 H38         -0.4500     1.1810     1.3860 h1         1 O4S       0.082700
     38 H40          5.2710     0.3990     0.7390 ha         1 O4S       0.147000
     39 H41          4.4860    -1.9190     1.0210 ha         1 O4S       0.140000
     40 H43          4.6670     2.6660     2.0970 h1         1 O4S       0.040700
     41 H44          3.0510     3.3610     2.0660 h1         1 O4S       0.040700
     42 H45         -2.7470    -0.5230    -1.9150 h1         1 O4S       0.058200
     43 H46         -3.4110     1.0790    -2.1980 h1         1 O4S       0.058200
     44 H47         -5.6470     1.5850    -1.5090 ha         1 O4S       0.136000
     45 H48         -3.7020    -1.8800     0.0780 ha         1 O4S       0.136000
     46 H50          2.7730     5.1230    -1.7000 hc         1 O4S       0.059700
     47 H49          4.4060     4.5080    -1.5570 hc         1 O4S       0.059700
     48 H51         -7.7410     0.9050    -0.4240 ha         1 O4S       0.132500
     49 H52         -5.7930    -2.5510     1.1720 ha         1 O4S       0.132500
     50 H53          4.4730    -3.7060    -0.3820 h1         1 O4S       0.054200
     51 H54          3.3190    -2.8260    -1.3850 h1         1 O4S       0.054200
     52 H55          0.9150    -5.2270     0.1550 h1         1 O4S       0.054200
     53 H56          2.0270    -5.4920     1.4960 h1         1 O4S       0.054200
     54 H57         -8.0130    -1.8760     1.9930 hc         1 O4S       0.046700
     55 H58         -8.7920    -0.4290     1.3890 hc         1 O4S       0.046700
     56 H60          4.6900     5.1570     2.1530 hc         1 O4S       0.048700
     57 H59          5.5660     4.5080     0.7730 hc         1 O4S       0.048700
     58 H61          2.3990    -4.8810    -2.2690 hc         1 O4S       0.054950
     59 H62          4.1070    -5.3070    -2.1350 hc         1 O4S       0.054950
     60 H64          3.7450    -6.3340     0.0550 hc         1 O4S       0.054950
     61 H63          2.3330    -6.8840    -0.8440 hc         1 O4S       0.054950
     62 H65          4.1320     6.3700     0.0100 hc         1 O4S       0.049200
     63 H66          2.7210     5.6270     0.7330 hc         1 O4S       0.049200
     64 H67        -10.0000    -2.4520     0.6080 hc         1 O4S       0.035700
     65 H69         -9.3020    -1.6150    -0.7770 hc         1 O4S       0.035700
     66 H68         -8.5320    -3.0700    -0.1480 hc         1 O4S       0.035700
     67 H36          3.0010     2.6280    -1.6790 h1         1 O4S       0.091700
     68 H37          0.4500    -0.6230     0.4640 ha         1 O4S       0.153000
     69 H42         -2.6890     0.9540     0.5300 hn         1 O4S       0.319500
@<TRIPOS>BOND
     1     1    25 1   
     2     1    29 1   
     3     1    33 2   
     4     2    24 ar  
     5     2    27 ar  
     6     2    29 1   
     7     3     5 1   
     8     3    29 1   
     9     3    36 1   
    10     3    37 1   
    11     4     6 ar  
    12     4    24 ar  
    13     4    38 1   
    14     5    31 1   
    15     5    35 2   
    16     6    28 ar  
    17     6    39 1   
    18     7    19 1   
    19     7    32 1   
    20     7    40 1   
    21     7    41 1   
    22     8     9 1   
    23     8    31 1   
    24     8    42 1   
    25     8    43 1   
    26     9    11 ar  
    27     9    12 ar  
    28    10    14 ar  
    29    10    15 ar  
    30    10    18 1   
    31    11    14 ar  
    32    11    44 1   
    33    12    15 ar  
    34    12    45 1   
    35    13    22 1   
    36    13    25 1   
    37    13    46 1   
    38    13    47 1   
    39    14    48 1   
    40    15    49 1   
    41    16    20 1   
    42    16    30 1   
    43    16    50 1   
    44    16    51 1   
    45    17    21 1   
    46    17    30 1   
    47    17    52 1   
    48    17    53 1   
    49    18    23 1   
    50    18    54 1   
    51    18    55 1   
    52    19    22 1   
    53    19    56 1   
    54    19    57 1   
    55    20    21 1   
    56    20    58 1   
    57    20    59 1   
    58    21    60 1   
    59    21    61 1   
    60    22    62 1   
    61    22    63 1   
    62    23    64 1   
    63    23    65 1   
    64    23    66 1   
    65    24    32 1   
    66    25    32 1   
    67    25    67 1   
    68    26    28 1   
    69    26    30 1   
    70    26    34 2   
    71    27    28 ar  
    72    27    68 1   
    73    31    69 1   
@<TRIPOS>SUBSTRUCTURE
     1 O4S         1 TEMP              0 ****  ****    0 ROOT
