@<TRIPOS>MOLECULE
O4S
   69    73     1     0     0
SMALL
No Charge or Current Charge


@<TRIPOS>ATOM
      1 C2           1.2960     2.9760    -0.4680 c          1 O4S       0.546000
      2 C3           1.9880     0.7230     0.3890 ca         1 O4S      -0.053000
      3 C11         -0.4630     1.4290     0.4060 c3         1 O4S       0.004000
      4 C12          4.3580     0.1580     0.6160 ca         1 O4S      -0.086000
      5 C13         -1.2980     0.8810    -0.7640 c          1 O4S       0.577100
      6 C15          4.0330    -1.2010     0.7420 ca         1 O4S      -0.103000
      7 C19          3.9630     3.2100     1.5110 c6         1 O4S       0.183800
      8 C20         -3.5890     0.0940    -1.4080 c3         1 O4S       0.155300
      9 C21         -4.9450    -0.0940    -0.7460 ca         1 O4S      -0.122300
     10 C22         -7.4620    -0.4390     0.4940 ca         1 O4S      -0.066300
     11 C23         -5.8910     0.9500    -0.7550 ca         1 O4S      -0.093000
     12 C24         -5.2640    -1.3090    -0.1120 ca         1 O4S      -0.093000
     13 C25          3.2330     4.6990    -0.9180 c6         1 O4S      -0.059400
     14 C26         -7.1420     0.7770    -0.1400 ca         1 O4S      -0.111500
     15 C27         -6.5160    -1.4810     0.5030 ca         1 O4S      -0.111500
     16 C28          4.1070    -3.8230    -0.9220 c5         1 O4S       0.100500
     17 C29          2.9300    -5.5150     0.4150 c5         1 O4S       0.100500
     18 C30         -8.8200    -0.6260     1.1580 c3         1 O4S      -0.034100
     19 C31          4.4170     4.6690     1.2900 c6         1 O4S      -0.079400
     20 C32          4.2640    -5.2380    -1.5400 c5         1 O4S      -0.096400
     21 C33          4.1580    -6.1410    -0.2880 c5         1 O4S      -0.096400
     22 C34          3.3950     5.4320     0.4270 c6         1 O4S      -0.078400
     23 C35         -9.8690    -1.1940     0.1840 c3         1 O4S      -0.086100
     24 C5           3.3530     1.1130     0.4000 ca         1 O4S       0.216000
     25 C6           2.8160     3.2060    -0.7440 c6         1 O4S       0.118500
     26 C7           2.3040    -3.0910     0.7130 c          1 O4S       0.616700
     27 C8           1.6840    -0.6580     0.4370 ca         1 O4S      -0.092000
     28 C9           2.6940    -1.6280     0.6150 ca         1 O4S      -0.123600
     29 N1           0.9640     1.7070     0.0740 n          1 O4S      -0.202400
     30 N10          3.1900    -4.0730     0.2180 n          1 O4S      -0.409800
     31 N17         -2.6150     0.6230    -0.4590 ns         1 O4S      -0.507900
     32 N4           3.6960     2.4710     0.2390 nh         1 O4S      -0.755400
     33 O14          0.4390     3.8080    -0.7590 o          1 O4S      -0.528000
     34 O16          1.2650    -3.4210     1.2730 o          1 O4S      -0.610100
     35 O18         -0.8460     0.6770    -1.8830 o          1 O4S      -0.594100
     36 H39         -0.9470     2.3490     0.7550 h1         1 O4S       0.082700
     37 H38         -0.5200     0.7120     1.2330 h1         1 O4S       0.082700
     38 H40          5.3950     0.4750     0.6770 ha         1 O4S       0.129000
     39 H41          4.8280    -1.9140     0.9450 ha         1 O4S       0.122000
     40 H43          4.7410     2.6890     2.0880 h1         1 O4S       0.040700
     41 H44          3.0520     3.2160     2.1290 h1         1 O4S       0.040700
     42 H45         -3.2270    -0.8680    -1.7950 h1         1 O4S       0.058200
     43 H46         -3.6790     0.7890    -2.2540 h1         1 O4S       0.058200
     44 H47         -5.6560     1.8950    -1.2390 ha         1 O4S       0.118000
     45 H48         -4.5410    -2.1230    -0.0960 ha         1 O4S       0.118000
     46 H50          2.5140     5.2290    -1.5560 hc         1 O4S       0.059700
     47 H49          4.1900     4.7350    -1.4570 hc         1 O4S       0.059700
     48 H51         -7.8650     1.5900    -0.1560 ha         1 O4S       0.114500
     49 H52         -6.7510    -2.4260     0.9870 ha         1 O4S       0.114500
     50 H53          5.0790    -3.4530    -0.5710 h1         1 O4S       0.054200
     51 H54          3.6980    -3.1020    -1.6420 h1         1 O4S       0.054200
     52 H55          1.9900    -5.8130    -0.0680 h1         1 O4S       0.054200
     53 H56          2.8810    -5.7860     1.4780 h1         1 O4S       0.054200
     54 H57         -8.7310    -1.3010     2.0190 hc         1 O4S       0.046700
     55 H58         -9.1830     0.3290     1.5550 hc         1 O4S       0.046700
     56 H60          4.5380     5.1700     2.2600 hc         1 O4S       0.048700
     57 H59          5.4030     4.6800     0.8050 hc         1 O4S       0.048700
     58 H61          3.4570    -5.4500    -2.2510 hc         1 O4S       0.054950
     59 H62          5.2130    -5.3580    -2.0750 hc         1 O4S       0.054950
     60 H64          5.0560    -6.0710     0.3370 hc         1 O4S       0.054950
     61 H63          4.0060    -7.1980    -0.5350 hc         1 O4S       0.054950
     62 H65          3.7360     6.4630     0.2580 hc         1 O4S       0.049200
     63 H66          2.4280     5.4950     0.9460 hc         1 O4S       0.049200
     64 H67        -10.8340    -1.3180     0.6890 hc         1 O4S       0.035700
     65 H69        -10.0100    -0.5190    -0.6690 hc         1 O4S       0.035700
     66 H68         -9.5520    -2.1720    -0.1980 hc         1 O4S       0.035700
     67 H36          2.9560     2.7350    -1.7280 h1         1 O4S       0.091700
     68 H37          0.6570    -0.9970     0.3300 ha         1 O4S       0.135000
     69 H42         -2.9230     0.8140     0.4880 hn         1 O4S       0.319500
@<TRIPOS>BOND
     1     1    25 1   
     2     1    29 1   
     3     1    33 2   
     4     2    24 ar  
     5     2    27 ar  
     6     2    29 1   
     7     3     5 1   
     8     3    29 1   
     9     3    36 1   
    10     3    37 1   
    11     4     6 ar  
    12     4    24 ar  
    13     4    38 1   
    14     5    31 1   
    15     5    35 2   
    16     6    28 ar  
    17     6    39 1   
    18     7    19 1   
    19     7    32 1   
    20     7    40 1   
    21     7    41 1   
    22     8     9 1   
    23     8    31 1   
    24     8    42 1   
    25     8    43 1   
    26     9    11 ar  
    27     9    12 ar  
    28    10    14 ar  
    29    10    15 ar  
    30    10    18 1   
    31    11    14 ar  
    32    11    44 1   
    33    12    15 ar  
    34    12    45 1   
    35    13    22 1   
    36    13    25 1   
    37    13    46 1   
    38    13    47 1   
    39    14    48 1   
    40    15    49 1   
    41    16    20 1   
    42    16    30 1   
    43    16    50 1   
    44    16    51 1   
    45    17    21 1   
    46    17    30 1   
    47    17    52 1   
    48    17    53 1   
    49    18    23 1   
    50    18    54 1   
    51    18    55 1   
    52    19    22 1   
    53    19    56 1   
    54    19    57 1   
    55    20    21 1   
    56    20    58 1   
    57    20    59 1   
    58    21    60 1   
    59    21    61 1   
    60    22    62 1   
    61    22    63 1   
    62    23    64 1   
    63    23    65 1   
    64    23    66 1   
    65    24    32 1   
    66    25    32 1   
    67    25    67 1   
    68    26    28 1   
    69    26    30 1   
    70    26    34 2   
    71    27    28 ar  
    72    27    68 1   
    73    31    69 1   
@<TRIPOS>SUBSTRUCTURE
     1 O4S         1 TEMP              0 ****  ****    0 ROOT
