@<TRIPOS>MOLECULE
O4T
   46    48     1     0     0
SMALL
abcg2


@<TRIPOS>ATOM
      1 C1         -13.1530    36.4390    71.2680 c3         1 O4T      -0.095100
      2 C2         -13.6330    35.2640    70.4110 c5         1 O4T       0.178700
      3 C3         -14.7530    34.4930    71.1150 c3         1 O4T      -0.095100
      4 C4         -15.2480    36.8110    67.3070 ca         1 O4T       0.141000
      5 C5         -14.4360    36.2350    66.3290 ca         1 O4T      -0.114000
      6 C8         -14.0460    35.7120    69.0270 ca         1 O4T      -0.067300
      7 C9         -13.2310    35.1310    68.0650 ca         1 O4T      -0.155600
      8 C10        -12.2350    34.2660    68.7350 c          1 O4T       0.585600
      9 C14        -11.7570    33.6570    71.0580 ca         1 O4T      -0.085000
     10 C15        -12.1100    32.3550    71.4060 ca         1 O4T       0.355900
     11 C17        -10.4390    32.2510    72.9620 ca         1 O4T       0.354900
     12 C19        -10.0050    33.5410    72.6810 ca         1 O4T      -0.143300
     13 C20         -8.8070    34.1200    73.3980 c3         1 O4T       0.287800
     14 N21         -9.0240    35.5410    73.7320 n7         1 O4T      -0.899300
     15 O23        -10.0060    37.4250    74.9870 o          1 O4T      -0.537500
     16 C26         -7.5490    34.0240    72.5350 c3         1 O4T      -0.102100
     17 C6         -13.4100    35.3810    66.7120 ca         1 O4T      -0.032000
     18 C7         -15.0730    36.5670    68.6650 ca         1 O4T      -0.091000
     19 N11        -12.5010    34.3560    70.0730 n          1 O4T      -0.258400
     20 O12        -11.3450    33.5980    68.2200 o          1 O4T      -0.532000
     21 CL1        -16.5380    37.8790    66.8040 cl         1 O4T      -0.202000
     22 N16        -11.4620    31.6590    72.3390 nb         1 O4T      -0.656000
     23 C18        -10.6810    34.2520    71.6970 ca         1 O4T      -0.035000
     24 S22         -9.9160    35.9830    75.0300 s6         1 O4T       1.226100
     25 O24        -11.1300    35.1990    75.0090 o          1 O4T      -0.537500
     26 C25         -9.0020    35.5360    76.4860 c3         1 O4T      -0.390100
     27 H1         -12.7990    36.0850    72.2360 hc         1 O4T       0.052700
     28 H2         -12.3460    36.9760    70.7690 hc         1 O4T       0.052700
     29 H3         -13.9810    37.1270    71.4380 hc         1 O4T       0.052700
     30 H4         -14.4050    34.1160    72.0770 hc         1 O4T       0.052700
     31 H5         -15.5980    35.1590    71.2930 hc         1 O4T       0.052700
     32 H6         -15.0860    33.6550    70.5030 hc         1 O4T       0.052700
     33 H7         -14.6120    36.4560    65.2850 ha         1 O4T       0.136000
     34 H8         -12.9460    31.8740    70.9120 h4         1 O4T       0.030100
     35 H9          -9.9390    31.6700    73.7310 h4         1 O4T       0.016100
     36 H10         -8.6420    33.5370    74.3090 h1         1 O4T       0.042700
     37 H11         -8.2110    36.1360    73.6180 hn         1 O4T       0.487000
     38 H12         -6.6840    34.4060    73.0800 hc         1 O4T       0.052367
     39 H13         -7.3650    32.9830    72.2720 hc         1 O4T       0.052367
     40 H14         -7.6740    34.5990    71.6160 hc         1 O4T       0.052367
     41 H15        -12.7690    34.9220    65.9700 ha         1 O4T       0.141000
     42 H16        -15.7200    37.0300    69.3970 ha         1 O4T       0.137000
     43 H17        -10.3860    35.2610    71.4430 ha         1 O4T       0.136000
     44 H18         -9.6080    35.8260    77.3440 h1         1 O4T       0.101033
     45 H19         -8.8370    34.4610    76.4860 h1         1 O4T       0.101033
     46 H20         -8.0580    36.0770    76.4790 h1         1 O4T       0.101033
@<TRIPOS>BOND
     1     1     2 1   
     2     1    27 1   
     3     1    28 1   
     4     1    29 1   
     5     2     3 1   
     6     2     6 1   
     7     2    19 1   
     8     3    30 1   
     9     3    31 1   
    10     3    32 1   
    11     4     5 ar  
    12     4    18 ar  
    13     4    21 1   
    14     5    17 ar  
    15     5    33 1   
    16     6     7 ar  
    17     6    18 ar  
    18     7     8 1   
    19     7    17 ar  
    20     8    19 1   
    21     8    20 2   
    22     9    10 ar  
    23     9    19 1   
    24     9    23 ar  
    25    10    22 ar  
    26    10    34 1   
    27    11    12 ar  
    28    11    22 ar  
    29    11    35 1   
    30    12    13 1   
    31    12    23 ar  
    32    13    14 1   
    33    13    16 1   
    34    13    36 1   
    35    14    24 1   
    36    14    37 1   
    37    15    24 2   
    38    16    38 1   
    39    16    39 1   
    40    16    40 1   
    41    17    41 1   
    42    18    42 1   
    43    23    43 1   
    44    24    25 2   
    45    24    26 1   
    46    26    44 1   
    47    26    45 1   
    48    26    46 1   
@<TRIPOS>SUBSTRUCTURE
     1 O4T         1 TEMP              0 ****  ****    0 ROOT
