@<TRIPOS>MOLECULE
O4T
   46    48     1     0     0
SMALL
No Charge or Current Charge


@<TRIPOS>ATOM
      1 C1         -12.2250    36.9640    70.1730 c3         1 O4T      -0.095100
      2 C2         -13.1300    35.7060    70.1610 c5         1 O4T       0.178700
      3 C3         -14.0000    35.6740    71.4400 c3         1 O4T      -0.095100
      4 C4         -15.6330    36.5030    67.2920 ca         1 O4T       0.141000
      5 C5         -15.2920    35.4450    66.4220 ca         1 O4T      -0.114000
      6 C8         -13.9870    35.7210    68.8930 ca         1 O4T      -0.067300
      7 C9         -13.6660    34.6910    68.0320 ca         1 O4T      -0.155600
      8 C10        -12.6310    33.8610    68.6640 c          1 O4T       0.585600
      9 C14        -11.6270    33.7150    70.9800 ca         1 O4T      -0.085000
     10 C15        -11.5820    32.2980    71.0230 ca         1 O4T       0.355900
     11 C17         -9.9730    32.2760    72.6860 ca         1 O4T       0.354900
     12 C19         -9.8670    33.6760    72.6640 ca         1 O4T      -0.143300
     13 C20         -8.8650    34.3790    73.5710 c3         1 O4T       0.287800
     14 N21         -9.4890    35.4960    74.2900 n7         1 O4T      -0.899300
     15 O23        -10.9790    36.5140    76.0170 o          1 O4T      -0.537500
     16 C26         -7.6880    34.9330    72.7500 c3         1 O4T      -0.102100
     17 C6         -14.2950    34.5200    66.7900 ca         1 O4T      -0.032000
     18 C7         -14.9810    36.6490    68.5330 ca         1 O4T      -0.091000
     19 N11        -12.3840    34.4030    69.9460 n          1 O4T      -0.258400
     20 O12        -12.1060    32.8720    68.1690 o          1 O4T      -0.532000
     21 Cl1        -16.8790    37.6520    66.8220 cl         1 O4T      -0.202000
     22 N16        -10.8000    31.5890    71.8700 nb         1 O4T      -0.656000
     23 C18        -10.6860    34.4000    71.7770 ca         1 O4T      -0.035000
     24 S22        -10.5170    35.2000    75.5680 s6         1 O4T       1.226100
     25 O24        -11.4810    34.1890    75.1320 o          1 O4T      -0.537500
     26 C25         -9.4270    34.5000    76.7910 c3         1 O4T      -0.390100
     27 H1         -11.7530    37.1360    71.1450 hc         1 O4T       0.052700
     28 H2         -11.4380    36.8930    69.4130 hc         1 O4T       0.052700
     29 H3         -12.8080    37.8680    69.9570 hc         1 O4T       0.052700
     30 H4         -13.3820    35.5940    72.3420 hc         1 O4T       0.052700
     31 H5         -14.6080    36.5810    71.5330 hc         1 O4T       0.052700
     32 H6         -14.6820    34.8150    71.4280 hc         1 O4T       0.052700
     33 H7         -15.8020    35.3430    65.4680 ha         1 O4T       0.136000
     34 H8         -12.2340    31.7000    70.3890 h4         1 O4T       0.030100
     35 H9          -9.3550    31.6790    73.3560 h4         1 O4T       0.016100
     36 H10         -8.4500    33.6480    74.2780 h1         1 O4T       0.042700
     37 H11         -8.7550    36.0040    74.7780 hn         1 O4T       0.487000
     38 H12         -6.9330    35.3820    73.4050 hc         1 O4T       0.052367
     39 H13         -7.2060    34.1260    72.1840 hc         1 O4T       0.052367
     40 H14         -8.0270    35.6950    72.0380 hc         1 O4T       0.052367
     41 H15        -14.0270    33.6950    66.1330 ha         1 O4T       0.141000
     42 H16        -15.2440    37.4700    69.1950 ha         1 O4T       0.137000
     43 H17        -10.5750    35.4750    71.7250 ha         1 O4T       0.136000
     44 H18        -10.0260    34.3330    77.6930 h1         1 O4T       0.101033
     45 H19         -9.0400    33.5520    76.4060 h1         1 O4T       0.101033
     46 H20         -8.6230    35.2160    76.9860 h1         1 O4T       0.101033
@<TRIPOS>BOND
     1     1     2 1   
     2     1    27 1   
     3     1    28 1   
     4     1    29 1   
     5     2     3 1   
     6     2     6 1   
     7     2    19 1   
     8     3    30 1   
     9     3    31 1   
    10     3    32 1   
    11     4     5 ar  
    12     4    18 ar  
    13     4    21 1   
    14     5    17 ar  
    15     5    33 1   
    16     6     7 ar  
    17     6    18 ar  
    18     7     8 1   
    19     7    17 ar  
    20     8    19 1   
    21     8    20 2   
    22     9    10 ar  
    23     9    19 1   
    24     9    23 ar  
    25    10    22 ar  
    26    10    34 1   
    27    11    12 ar  
    28    11    22 ar  
    29    11    35 1   
    30    12    13 1   
    31    12    23 ar  
    32    13    14 1   
    33    13    16 1   
    34    13    36 1   
    35    14    24 1   
    36    14    37 1   
    37    15    24 2   
    38    16    38 1   
    39    16    39 1   
    40    16    40 1   
    41    17    41 1   
    42    18    42 1   
    43    23    43 1   
    44    24    25 2   
    45    24    26 1   
    46    26    44 1   
    47    26    45 1   
    48    26    46 1   
@<TRIPOS>SUBSTRUCTURE
     1 O4T         1 TEMP              0 ****  ****    0 ROOT
