@<TRIPOS>MOLECULE
O4U
   62    66     1     0     0
SMALL
No Charge or Current Charge


@<TRIPOS>ATOM
      1 C7          12.7040    17.1240    19.7420 ca         1 O4U       0.012000
      2 C6          11.7390    17.8170    20.4880 ca         1 O4U       0.052400
      3 C1          13.8800    14.9830    19.1060 c          1 O4U       0.612700
      4 C5          10.9350    17.1500    21.3680 ca         1 O4U      -0.056200
      5 C4          11.0240    15.7710    21.5880 ca         1 O4U      -0.116000
      6 C3          11.9870    15.0530    20.8490 ca         1 O4U      -0.077000
      7 C2          12.8370    15.7200    19.9160 ca         1 O4U      -0.178600
      8 C17         10.4700    19.3390    21.3750 cc         1 O4U       0.426700
      9 C20         14.9240    12.7500    18.6120 c3         1 O4U       0.094300
     10 C27          9.2100    17.9300    22.9460 ca         1 O4U       0.000800
     11 C28          9.3280    18.6770    24.1340 ca         1 O4U      -0.110000
     12 C29          8.3990    18.5050    25.1750 ca         1 O4U      -0.085000
     13 C30          7.3400    17.5860    25.0380 ca         1 O4U      -0.090300
     14 C31          7.2220    16.8410    23.8500 ca         1 O4U      -0.085000
     15 C32          8.1510    17.0120    22.8100 ca         1 O4U      -0.110000
     16 C33          6.3370    17.3960    26.1670 c3         1 O4U       0.156300
     17 C35          6.3990    15.0150    27.0050 c          1 O4U       0.532600
     18 C37          7.0220    14.1560    28.0680 cc         1 O4U       0.190500
     19 C40          7.4710    12.2870    29.1980 cd         1 O4U      -0.154300
     20 C41          6.7680    12.7750    28.1390 cc         1 O4U      -0.153000
     21 C42          7.5730    10.8810    29.7400 c3         1 O4U       0.039200
     22 C43          6.7650     9.8600    28.9480 ca         1 O4U      -0.086300
     23 C44          5.4260     9.5890    29.2960 ca         1 O4U      -0.098500
     24 C45          4.6770     8.6560    28.5580 ca         1 O4U      -0.108500
     25 C46          5.2610     7.9890    27.4680 ca         1 O4U      -0.103000
     26 C47          6.5940     8.2580    27.1140 ca         1 O4U      -0.108500
     27 C48          7.3430     9.1910    27.8520 ca         1 O4U      -0.098500
     28 N14         11.4660    19.1910    20.4700 nd         1 O4U      -0.561100
     29 N16         10.1280    18.0990    21.9120 na         1 O4U      -0.089400
     30 N18         13.9750    13.6240    19.3050 ns         1 O4U      -0.505900
     31 N34          6.7640    16.3440    27.0890 ns         1 O4U      -0.501900
     32 N38          7.8480    14.5730    29.0230 nd         1 O4U      -0.526800
     33 N39          8.1270    13.4060    29.7260 na         1 O4U       0.144800
     34 O19         14.6100    15.5570    18.3090 o          1 O4U      -0.605100
     35 O36          5.6370    14.6080    26.1340 o          1 O4U      -0.590100
     36 H1          13.3360    17.6680    19.0460 ha         1 O4U       0.153000
     37 H2          10.3770    15.2680    22.3030 ha         1 O4U       0.129000
     38 H3          12.0600    13.9810    21.0130 ha         1 O4U       0.110000
     39 H4           9.9840    20.2630    21.6660 h5         1 O4U       0.065800
     40 H5          14.7880    11.7160    18.9550 h1         1 O4U       0.039367
     41 H6          14.7470    12.7980    17.5290 h1         1 O4U       0.039367
     42 H7          15.9500    13.0720    18.8290 h1         1 O4U       0.039367
     43 H8          10.1440    19.3860    24.2590 ha         1 O4U       0.128000
     44 H9           8.5040    19.0840    26.0900 ha         1 O4U       0.121000
     45 H10          6.4100    16.1260    23.7340 ha         1 O4U       0.121000
     46 H11          8.0450    16.4330    21.8950 ha         1 O4U       0.128000
     47 H12          6.2320    18.3330    26.7290 h1         1 O4U       0.059200
     48 H13          5.3500    17.1480    25.7530 h1         1 O4U       0.059200
     49 H14          6.1240    12.2220    27.4620 ha         1 O4U       0.168000
     50 H15          8.6270    10.5750    29.7600 hc         1 O4U       0.057200
     51 H16          7.2480    10.8720    30.7880 hc         1 O4U       0.057200
     52 H17          4.9650    10.1040    30.1360 ha         1 O4U       0.113000
     53 H18          3.6450     8.4500    28.8310 ha         1 O4U       0.115000
     54 H19          4.6810     7.2670    26.8970 ha         1 O4U       0.114000
     55 H20          7.0470     7.7450    26.2680 ha         1 O4U       0.115000
     56 H21          8.3730     9.3980    27.5680 ha         1 O4U       0.113000
     57 H22          9.8840    12.7740    30.6990 h1         1 O4U       0.059700
     58 H23          9.3810    14.4490    31.0720 h1         1 O4U       0.059700
     59 H24          8.4850    13.0700    31.7740 h1         1 O4U       0.059700
     60 H25         13.3410    13.2130    19.9780 hn         1 O4U       0.315500
     61 H26          7.4030    16.5800    27.8410 hn         1 O4U       0.334500
     62 C49          9.0250    13.4280    30.8900 c3         1 O4U       0.064900
@<TRIPOS>BOND
     1     1     2 ar  
     2     1     7 ar  
     3     1    36 1   
     4     2     4 ar  
     5     2    28 1   
     6     3     7 1   
     7     3    30 1   
     8     3    34 2   
     9     4     5 ar  
    10     4    29 1   
    11     5     6 ar  
    12     5    37 1   
    13     6     7 ar  
    14     6    38 1   
    15     8    28 2   
    16     8    29 1   
    17     8    39 1   
    18     9    30 1   
    19     9    40 1   
    20     9    41 1   
    21     9    42 1   
    22    10    11 ar  
    23    10    15 ar  
    24    10    29 1   
    25    11    12 ar  
    26    11    43 1   
    27    12    13 ar  
    28    12    44 1   
    29    13    14 ar  
    30    13    16 1   
    31    14    15 ar  
    32    14    45 1   
    33    15    46 1   
    34    16    31 1   
    35    16    47 1   
    36    16    48 1   
    37    17    18 1   
    38    17    31 1   
    39    17    35 2   
    40    18    20 1   
    41    18    32 2   
    42    19    20 2   
    43    19    21 1   
    44    19    33 1   
    45    20    49 1   
    46    21    22 1   
    47    21    50 1   
    48    21    51 1   
    49    22    23 ar  
    50    22    27 ar  
    51    23    24 ar  
    52    23    52 1   
    53    24    25 ar  
    54    24    53 1   
    55    25    26 ar  
    56    25    54 1   
    57    26    27 ar  
    58    26    55 1   
    59    27    56 1   
    60    30    60 1   
    61    31    61 1   
    62    32    33 1   
    63    33    62 1   
    64    57    62 1   
    65    58    62 1   
    66    59    62 1   
@<TRIPOS>SUBSTRUCTURE
     1 O4U         1 TEMP              0 ****  ****    0 ROOT
