@<TRIPOS>MOLECULE
O4U
   62    66     1     0     0
SMALL
abcg2


@<TRIPOS>ATOM
      1 C7          13.2760    16.6640    20.0990 ca         1 O4U       0.012000
      2 C6          12.6220    17.2140    21.1950 ca         1 O4U       0.052400
      3 C1          13.3720    15.0820    18.2140 c          1 O4U       0.612700
      4 C5          11.3430    16.7600    21.5530 ca         1 O4U      -0.056200
      5 C4          10.6920    15.7520    20.8520 ca         1 O4U      -0.116000
      6 C3          11.3620    15.2110    19.7720 ca         1 O4U      -0.077000
      7 C2          12.6450    15.6510    19.3920 ca         1 O4U      -0.178600
      8 C17         12.0590    18.3260    22.9090 cc         1 O4U       0.426700
      9 C20         13.6140    13.2180    16.6660 c3         1 O4U       0.094300
     10 C27          9.8160    17.4080    23.4240 ca         1 O4U       0.000800
     11 C28          9.8920    17.2300    24.7990 ca         1 O4U      -0.110000
     12 C29          8.7280    17.1610    25.5490 ca         1 O4U      -0.085000
     13 C30          7.4800    17.2390    24.9390 ca         1 O4U      -0.090300
     14 C31          7.4230    17.4070    23.5600 ca         1 O4U      -0.085000
     15 C32          8.5790    17.5020    22.8010 ca         1 O4U      -0.110000
     16 C33          6.2060    17.1830    25.7500 c3         1 O4U       0.156300
     17 C35          6.3820    14.9830    26.7760 c          1 O4U       0.532600
     18 C37          6.5320    14.2380    28.0430 cc         1 O4U       0.190500
     19 C40          6.7940    12.6610    29.5500 cd         1 O4U      -0.154300
     20 C41          6.6840    12.8510    28.1920 cc         1 O4U      -0.153000
     21 C42          6.9780    11.4250    30.3680 c3         1 O4U       0.039200
     22 C43          7.1280    10.2010    29.5070 ca         1 O4U      -0.086300
     23 C44          6.0200     9.4270    29.1790 ca         1 O4U      -0.098500
     24 C45          6.1530     8.3090    28.3640 ca         1 O4U      -0.108500
     25 C46          7.4000     7.9550    27.8680 ca         1 O4U      -0.103000
     26 C47          8.5120     8.7240    28.1890 ca         1 O4U      -0.108500
     27 C48          8.3740     9.8400    29.0030 ca         1 O4U      -0.098500
     28 N14         13.0370    18.1950    22.0670 nd         1 O4U      -0.561100
     29 N16         11.0030    17.4950    22.6630 na         1 O4U      -0.089400
     30 N18         12.9870    13.8680    17.7920 ns         1 O4U      -0.505900
     31 N34          6.2860    16.3180    26.8980 ns         1 O4U      -0.501900
     32 N38          6.5480    14.8500    29.2160 nd         1 O4U      -0.526800
     33 N39          6.7030    13.8900    30.1110 na         1 O4U       0.144800
     34 O19         14.2770    15.7000    17.6670 o          1 O4U      -0.605100
     35 O36          6.3540    14.4050    25.6980 o          1 O4U      -0.590100
     36 H1          14.2590    17.0150    19.8140 ha         1 O4U       0.153000
     37 H2           9.7040    15.4050    21.1220 ha         1 O4U       0.129000
     38 H3          10.8540    14.4470    19.1990 ha         1 O4U       0.110000
     39 H4          12.0320    19.0210    23.7360 h5         1 O4U       0.065800
     40 H5          13.0790    12.2960    16.4590 h1         1 O4U       0.039367
     41 H6          13.5720    13.8450    15.7750 h1         1 O4U       0.039367
     42 H7          14.6600    12.9730    16.8610 h1         1 O4U       0.039367
     43 H8          10.8550    17.1380    25.2850 ha         1 O4U       0.128000
     44 H9           8.8030    17.0200    26.6200 ha         1 O4U       0.121000
     45 H10          6.4620    17.4690    23.0640 ha         1 O4U       0.121000
     46 H11          8.5140    17.6530    21.7310 ha         1 O4U       0.128000
     47 H12          5.9650    18.1810    26.1170 h1         1 O4U       0.059200
     48 H13          5.3770    16.8820    25.1060 h1         1 O4U       0.059200
     49 H14          6.7110    12.0980    27.4220 ha         1 O4U       0.168000
     50 H15          7.8580    11.5410    31.0080 hc         1 O4U       0.057200
     51 H16          6.1250    11.3040    31.0430 hc         1 O4U       0.057200
     52 H17          5.0440     9.6970    29.5660 ha         1 O4U       0.113000
     53 H18          5.2820     7.7140    28.1210 ha         1 O4U       0.115000
     54 H19          7.5060     7.0840    27.2350 ha         1 O4U       0.114000
     55 H20          9.4880     8.4530    27.8080 ha         1 O4U       0.115000
     56 H21          9.2450    10.4350    29.2520 ha         1 O4U       0.113000
     57 H22          7.7660    13.9750    31.9150 h1         1 O4U       0.059700
     58 H23          6.5770    15.2610    31.6470 h1         1 O4U       0.059700
     59 H24          6.0350    13.6310    32.0760 h1         1 O4U       0.059700
     60 H25         12.3440    13.3260    18.3430 hn         1 O4U       0.315500
     61 H26          6.3440    16.7260    27.8170 hn         1 O4U       0.334500
     62 C49          6.7770    14.2020    31.5200 c3         1 O4U       0.064900
@<TRIPOS>BOND
     1     1     2 ar  
     2     1     7 ar  
     3     1    36 1   
     4     2     4 ar  
     5     2    28 1   
     6     3     7 1   
     7     3    30 1   
     8     3    34 2   
     9     4     5 ar  
    10     4    29 1   
    11     5     6 ar  
    12     5    37 1   
    13     6     7 ar  
    14     6    38 1   
    15     8    28 2   
    16     8    29 1   
    17     8    39 1   
    18     9    30 1   
    19     9    40 1   
    20     9    41 1   
    21     9    42 1   
    22    10    11 ar  
    23    10    15 ar  
    24    10    29 1   
    25    11    12 ar  
    26    11    43 1   
    27    12    13 ar  
    28    12    44 1   
    29    13    14 ar  
    30    13    16 1   
    31    14    15 ar  
    32    14    45 1   
    33    15    46 1   
    34    16    31 1   
    35    16    47 1   
    36    16    48 1   
    37    17    18 1   
    38    17    31 1   
    39    17    35 2   
    40    18    20 1   
    41    18    32 2   
    42    19    20 2   
    43    19    21 1   
    44    19    33 1   
    45    20    49 1   
    46    21    22 1   
    47    21    50 1   
    48    21    51 1   
    49    22    23 ar  
    50    22    27 ar  
    51    23    24 ar  
    52    23    52 1   
    53    24    25 ar  
    54    24    53 1   
    55    25    26 ar  
    56    25    54 1   
    57    26    27 ar  
    58    26    55 1   
    59    27    56 1   
    60    30    60 1   
    61    31    61 1   
    62    32    33 1   
    63    33    62 1   
    64    57    62 1   
    65    58    62 1   
    66    59    62 1   
@<TRIPOS>SUBSTRUCTURE
     1 O4U         1 TEMP              0 ****  ****    0 ROOT
