@<TRIPOS>MOLECULE
O4V
   43    45     1     0     0
SMALL
abcg2


@<TRIPOS>ATOM
      1 C1         -11.5710    27.3480    15.5230 cc         1 O4V      -0.119100
      2 C2         -11.8670    27.8060    16.8080 cd         1 O4V       0.364000
      3 C12        -14.0110    29.8730    17.9950 ca         1 O4V       0.162100
      4 C13         -9.0720    29.6940    14.9170 ca         1 O4V      -0.004500
      5 C14         -9.8950    28.9240    12.7730 ca         1 O4V      -0.004500
      6 C15         -9.6480    30.1810    12.2390 ca         1 O4V      -0.136000
      7 C16         -8.8350    30.9440    14.3670 ca         1 O4V      -0.136000
      8 C17         -9.1240    31.2100    13.0250 ca         1 O4V      -0.025300
      9 C18        -14.8300    27.6630    18.6020 ca         1 O4V      -0.046000
     10 C20        -14.8050    30.4280    19.0000 ca         1 O4V      -0.199000
     11 C21        -13.0730    31.9880    17.3370 c3         1 O4V       0.167600
     12 C22         -8.9000    32.5800    12.4500 c3         1 O4V      -0.055800
     13 C23        -15.6250    28.2240    19.5950 ca         1 O4V      -0.148000
     14 C24        -12.0850    32.4740    16.3030 c3         1 O4V      -0.096100
     15 C25        -15.6020    29.6010    19.7860 ca         1 O4V      -0.054000
     16 C7         -14.0350    28.4800    17.8140 ca         1 O4V      -0.062200
     17 C8          -9.6040    28.6880    14.1130 ca         1 O4V      -0.279500
     18 N11        -11.0820    28.1300    17.8500 nv         1 O4V      -1.080000
     19 N3         -13.2150    27.9250    16.7960 na         1 O4V       0.149000
     20 N5         -12.7300    27.2430    14.8160 nc         1 O4V      -0.248000
     21 N6         -13.7220    27.5820    15.5570 nd         1 O4V      -0.170800
     22 O10         -9.1020    26.9000    15.9570 o          1 O4V      -0.546500
     23 O9         -10.0810    26.1350    13.7800 o          1 O4V      -0.546500
     24 S4          -9.9970    27.1220    14.8340 sy         1 O4V       1.059600
     25 H28         -8.8460    29.5010    15.9560 ha         1 O4V       0.135000
     26 H29        -10.3050    28.1350    12.1580 ha         1 O4V       0.135000
     27 H30         -9.8660    30.3660    11.1940 ha         1 O4V       0.115000
     28 H31         -8.4180    31.7270    14.9880 ha         1 O4V       0.115000
     29 H32        -14.8130    26.5950    18.4310 ha         1 O4V       0.136000
     30 H33        -14.8080    31.4940    19.1680 ha         1 O4V       0.125000
     31 H35        -12.7200    32.1910    18.3520 h1         1 O4V       0.038200
     32 H34        -14.0510    32.4580    17.2060 h1         1 O4V       0.038200
     33 H38         -9.7660    33.2200    12.6480 hc         1 O4V       0.047700
     34 H37         -8.0310    33.0600    12.9010 hc         1 O4V       0.047700
     35 H36         -8.7610    32.5380    11.3700 hc         1 O4V       0.047700
     36 H39        -16.2480    27.5920    20.2130 ha         1 O4V       0.127000
     37 H40        -11.9530    33.5530    16.4040 hc         1 O4V       0.053033
     38 H41        -11.1160    31.9920    16.4350 hc         1 O4V       0.053033
     39 H42        -12.4460    32.2640    15.2950 hc         1 O4V       0.053033
     40 H43        -16.2140    30.0470    20.5600 ha         1 O4V       0.119000
     41 H27        -11.4990    28.2240    18.7630 hn         1 O4V       0.506000
     42 H26        -10.1330    27.7880    17.8210 hn         1 O4V       0.506000
     43 O19        -13.2070    30.5660    17.1650 os         1 O4V      -0.344100
@<TRIPOS>BOND
     1     1     2 2   
     2     1    20 1   
     3     1    24 1   
     4     2    18 1   
     5     2    19 1   
     6     3    10 ar  
     7     3    16 ar  
     8     3    43 1   
     9     4     7 ar  
    10     4    17 ar  
    11     4    25 1   
    12     5     6 ar  
    13     5    17 ar  
    14     5    26 1   
    15     6     8 ar  
    16     6    27 1   
    17     7     8 ar  
    18     7    28 1   
    19     8    12 1   
    20     9    13 ar  
    21     9    16 ar  
    22     9    29 1   
    23    10    15 ar  
    24    10    30 1   
    25    11    14 1   
    26    11    31 1   
    27    11    32 1   
    28    11    43 1   
    29    12    33 1   
    30    12    34 1   
    31    12    35 1   
    32    13    15 ar  
    33    13    36 1   
    34    14    37 1   
    35    14    38 1   
    36    14    39 1   
    37    15    40 1   
    38    16    19 1   
    39    17    24 1   
    40    18    41 1   
    41    18    42 1   
    42    19    21 1   
    43    20    21 2   
    44    22    24 2   
    45    23    24 2   
@<TRIPOS>SUBSTRUCTURE
     1 O4V         1 TEMP              0 ****  ****    0 ROOT
