@<TRIPOS>MOLECULE
O4V
   43    45     1     0     0
SMALL
No Charge or Current Charge


@<TRIPOS>ATOM
      1 C1         -11.7270    27.2180    15.4770 cc         1 O4V      -0.119100
      2 C2         -11.9790    27.6400    16.7440 cd         1 O4V       0.364000
      3 C12        -13.9610    29.8140    17.8040 ca         1 O4V       0.162100
      4 C13         -8.8620    29.5300    15.0520 ca         1 O4V      -0.004500
      5 C14        -10.2200    29.2200    13.0520 ca         1 O4V      -0.004500
      6 C15         -9.9440    30.5430    12.6640 ca         1 O4V      -0.136000
      7 C16         -8.5890    30.8510    14.6560 ca         1 O4V      -0.136000
      8 C17         -9.1280    31.3650    13.4620 ca         1 O4V      -0.025300
      9 C18        -14.6560    27.6970    18.8080 ca         1 O4V      -0.046000
     10 C20        -14.6010    30.5110    18.8530 ca         1 O4V      -0.199000
     11 C21        -13.1330    31.8970    16.7540 c3         1 O4V       0.167600
     12 C22         -8.8440    32.8000    13.0480 c3         1 O4V      -0.055800
     13 C23        -15.2900    28.3980    19.8480 ca         1 O4V      -0.148000
     14 C24        -12.2770    32.2290    15.5200 c3         1 O4V      -0.096100
     15 C25        -15.2620    29.8020    19.8710 ca         1 O4V      -0.054000
     16 C7         -13.9890    28.4000    17.7870 ca         1 O4V      -0.062200
     17 C8          -9.6770    28.7080    14.2470 ca         1 O4V      -0.279500
     18 N11        -11.1570    27.9420    17.8140 nv         1 O4V      -1.080000
     19 N3         -13.3630    27.6970    16.7570 na         1 O4V       0.149000
     20 N5         -12.9010    27.0470    14.7710 nc         1 O4V      -0.248000
     21 N6         -13.9100    27.3820    15.5440 nd         1 O4V      -0.170800
     22 O10         -9.1660    26.6500    15.8530 o          1 O4V      -0.546500
     23 O9         -10.2190    26.1990    13.5580 o          1 O4V      -0.546500
     24 S4         -10.0860    27.0270    14.7680 sy         1 O4V       1.059600
     25 H28         -8.4450    29.1580    15.9860 ha         1 O4V       0.135000
     26 H29        -10.8640    28.6030    12.4260 ha         1 O4V       0.135000
     27 H30        -10.3730    30.9310    11.7430 ha         1 O4V       0.115000
     28 H31         -7.9630    31.4790    15.2860 ha         1 O4V       0.115000
     29 H32        -14.6840    26.6090    18.7950 ha         1 O4V       0.136000
     30 H33        -14.5970    31.5960    18.8930 ha         1 O4V       0.125000
     31 H35        -12.6210    32.2500    17.6580 h1         1 O4V       0.038200
     32 H34        -14.1050    32.4020    16.6760 h1         1 O4V       0.038200
     33 H38         -9.5990    33.4800    13.4590 hc         1 O4V       0.047700
     34 H37         -7.8620    33.1330    13.4050 hc         1 O4V       0.047700
     35 H36         -8.8520    32.9100    11.9570 hc         1 O4V       0.047700
     36 H39        -15.8050    27.8530    20.6360 ha         1 O4V       0.127000
     37 H40        -12.1170    33.3110    15.4480 hc         1 O4V       0.053033
     38 H41        -11.2990    31.7390    15.5900 hc         1 O4V       0.053033
     39 H42        -12.7720    31.8910    14.6030 hc         1 O4V       0.053033
     40 H43        -15.7550    30.3420    20.6780 ha         1 O4V       0.119000
     41 H27        -11.5700    28.0990    18.7310 hn         1 O4V       0.506000
     42 H26        -10.1870    27.6300    17.7970 hn         1 O4V       0.506000
     43 O19        -13.2980    30.4720    16.7840 os         1 O4V      -0.344100
@<TRIPOS>BOND
     1     1     2 2   
     2     1    20 1   
     3     1    24 1   
     4     2    18 1   
     5     2    19 1   
     6     3    10 ar  
     7     3    16 ar  
     8     3    43 1   
     9     4     7 ar  
    10     4    17 ar  
    11     4    25 1   
    12     5     6 ar  
    13     5    17 ar  
    14     5    26 1   
    15     6     8 ar  
    16     6    27 1   
    17     7     8 ar  
    18     7    28 1   
    19     8    12 1   
    20     9    13 ar  
    21     9    16 ar  
    22     9    29 1   
    23    10    15 ar  
    24    10    30 1   
    25    11    14 1   
    26    11    31 1   
    27    11    32 1   
    28    11    43 1   
    29    12    33 1   
    30    12    34 1   
    31    12    35 1   
    32    13    15 ar  
    33    13    36 1   
    34    14    37 1   
    35    14    38 1   
    36    14    39 1   
    37    15    40 1   
    38    16    19 1   
    39    17    24 1   
    40    18    41 1   
    41    18    42 1   
    42    19    21 1   
    43    20    21 2   
    44    22    24 2   
    45    23    24 2   
@<TRIPOS>SUBSTRUCTURE
     1 O4V         1 TEMP              0 ****  ****    0 ROOT
