@<TRIPOS>MOLECULE
O4W
   54    58     1     0     0
SMALL
No Charge or Current Charge


@<TRIPOS>ATOM
      1 C1         -22.7340    31.4310    37.4750 ca         1 O4W       0.138000
      2 C2         -23.3310    32.4780    35.3710 ca         1 O4W      -0.068300
      3 C3         -23.5950    32.2660    36.7360 ca         1 O4W      -0.093000
      4 C4         -22.2420    31.8680    34.7790 ca         1 O4W      -0.159600
      5 C5         -21.6230    30.8170    36.8580 ca         1 O4W      -0.115000
      6 C6         -21.3660    31.0330    35.4890 ca         1 O4W      -0.031000
      7 C7         -22.2150    32.2370    33.3570 c          1 O4W       0.588600
      8 O12        -21.3710    31.8860    32.5420 o          1 O4W      -0.522000
      9 C14        -23.7630    33.4810    31.7980 ca         1 O4W      -0.048000
     10 C15        -23.8920    33.0720    29.3990 ca         1 O4W       0.093100
     11 C16        -23.6260    32.5990    30.7020 ca         1 O4W      -0.160000
     12 C8         -24.1100    33.3540    34.3880 c5         1 O4W       0.181700
     13 C32        -29.2110    25.8750    25.3740 c3         1 O4W       0.069900
     14 N9         -23.3430    33.0540    33.1170 n          1 O4W      -0.258400
     15 Cl1        -23.0440    31.1540    39.1840 cl         1 O4W      -0.192000
     16 C11        -25.5870    32.9090    34.2800 c3         1 O4W      -0.095600
     17 C13        -24.0440    34.8330    34.8420 c3         1 O4W      -0.095600
     18 C17        -24.2220    34.4340    29.2340 ca         1 O4W       0.315900
     19 C18        -24.0230    34.8450    31.5050 ca         1 O4W       0.307900
     20 N19        -24.2730    35.3160    30.2600 nb         1 O4W      -0.632000
     21 O20        -23.8260    32.2560    28.2830 os         1 O4W      -0.322100
     22 C21        -23.6670    30.8300    28.3680 cy         1 O4W       0.123300
     23 C22        -24.9130    30.0360    28.8870 cy         1 O4W       0.093000
     24 C23        -23.8690    30.0650    27.0200 cy         1 O4W       0.093000
     25 N24        -25.2930    29.8340    27.4460 nj         1 O4W      -0.419800
     26 C25        -25.3750    28.4050    27.3900 c          1 O4W       0.670700
     27 O26        -24.6220    27.5120    27.7720 o          1 O4W      -0.617100
     28 C27        -26.6400    28.0310    26.7290 cc         1 O4W      -0.282600
     29 C28        -27.6210    28.8980    26.2270 cc         1 O4W       0.272900
     30 N29        -28.6510    28.2780    25.6870 nd         1 O4W      -0.527800
     31 N30        -28.3150    26.9380    25.8490 na         1 O4W       0.135800
     32 C31        -27.0830    26.7620    26.4870 cd         1 O4W      -0.097000
     33 H1         -24.4460    32.7390    37.2190 ha         1 O4W       0.137000
     34 H2         -20.9660    30.1750    37.4390 ha         1 O4W       0.136000
     35 H3         -20.5170    30.5620    34.9970 ha         1 O4W       0.141000
     36 H4         -23.3500    31.5640    30.8760 ha         1 O4W       0.133000
     37 H5         -29.3490    25.9700    24.2900 h1         1 O4W       0.060367
     38 H6         -28.7760    24.8950    25.5990 h1         1 O4W       0.060367
     39 H7         -30.1820    25.9640    25.8750 h1         1 O4W       0.060367
     40 H8         -26.1140    33.0390    35.2330 hc         1 O4W       0.050533
     41 H9         -26.1240    33.4890    33.5200 hc         1 O4W       0.050533
     42 H10        -25.6580    31.8510    34.0020 hc         1 O4W       0.050533
     43 H11        -24.3290    34.9330    35.8950 hc         1 O4W       0.050533
     44 H12        -23.0290    35.2360    34.7360 hc         1 O4W       0.050533
     45 H13        -24.7310    35.4700    34.2750 hc         1 O4W       0.050533
     46 H14        -24.4300    34.8340    28.2420 h4         1 O4W       0.036100
     47 H15        -24.0090    35.6020    32.2820 h4         1 O4W       0.031100
     48 H16        -22.7260    30.5850    28.8730 h1         1 O4W       0.073700
     49 H17        -25.6340    30.6530    29.4340 h1         1 O4W       0.068200
     50 H18        -24.6560    29.1510    29.4820 h1         1 O4W       0.068200
     51 H19        -23.2160    29.1910    26.9050 h1         1 O4W       0.068200
     52 H20        -23.7880    30.7060    26.1350 h1         1 O4W       0.068200
     53 H21        -27.6200    29.9810    26.2380 h4         1 O4W       0.039100
     54 H22        -26.6490    25.7910    26.7040 h4         1 O4W       0.171000
@<TRIPOS>BOND
     1     1     3 ar  
     2     1     5 ar  
     3     1    15 1   
     4     2     3 ar  
     5     2     4 ar  
     6     2    12 1   
     7     3    33 1   
     8     4     6 ar  
     9     4     7 1   
    10     5     6 ar  
    11     5    34 1   
    12     6    35 1   
    13     7     8 2   
    14     7    14 1   
    15     9    11 ar  
    16     9    14 1   
    17     9    19 ar  
    18    10    11 ar  
    19    10    18 ar  
    20    10    21 1   
    21    11    36 1   
    22    12    14 1   
    23    12    16 1   
    24    12    17 1   
    25    13    31 1   
    26    13    37 1   
    27    13    38 1   
    28    13    39 1   
    29    16    40 1   
    30    16    41 1   
    31    16    42 1   
    32    17    43 1   
    33    17    44 1   
    34    17    45 1   
    35    18    20 ar  
    36    18    46 1   
    37    19    20 ar  
    38    19    47 1   
    39    21    22 1   
    40    22    23 1   
    41    22    24 1   
    42    22    48 1   
    43    23    25 1   
    44    23    49 1   
    45    23    50 1   
    46    24    25 1   
    47    24    51 1   
    48    24    52 1   
    49    25    26 1   
    50    26    27 2   
    51    26    28 1   
    52    28    29 1   
    53    28    32 2   
    54    29    30 2   
    55    29    53 1   
    56    30    31 1   
    57    31    32 1   
    58    32    54 1   
@<TRIPOS>SUBSTRUCTURE
     1 O4W         1 TEMP              0 ****  ****    0 ROOT
