@<TRIPOS>MOLECULE
O4W
   54    58     1     0     0
SMALL
abcg2


@<TRIPOS>ATOM
      1 C1         -22.3380    31.5550    37.3650 ca         1 O4W       0.138000
      2 C2         -23.0560    32.4280    35.2890 ca         1 O4W      -0.068300
      3 C3         -23.3580    32.1030    36.5990 ca         1 O4W      -0.093000
      4 C4         -21.7910    32.2110    34.7760 ca         1 O4W      -0.159600
      5 C5         -21.0590    31.3320    36.8590 ca         1 O4W      -0.115000
      6 C6         -20.7770    31.6630    35.5440 ca         1 O4W      -0.031000
      7 C7         -21.7680    32.6460    33.3680 c          1 O4W       0.588600
      8 O12        -20.8430    32.6000    32.5810 o          1 O4W      -0.522000
      9 C14        -23.4000    33.5770    31.8330 ca         1 O4W      -0.048000
     10 C15        -24.1180    33.1520    29.5980 ca         1 O4W       0.093100
     11 C16        -23.7330    32.6630    30.8380 ca         1 O4W      -0.160000
     12 C8         -23.9550    33.0350    34.2440 c5         1 O4W       0.181700
     13 C32        -28.5040    25.6610    24.6670 c3         1 O4W       0.069900
     14 N9         -23.0180    33.1230    33.1090 n          1 O4W      -0.258400
     15 CL1        -22.6660    31.1300    39.0100 cl         1 O4W      -0.192000
     16 C11        -25.1290    32.1170    33.9120 c3         1 O4W      -0.095600
     17 C13        -24.4470    34.4140    34.6740 c3         1 O4W      -0.095600
     18 C17        -24.1480    34.5380    29.4140 ca         1 O4W       0.315900
     19 C18        -23.4470    34.9320    31.5480 ca         1 O4W       0.307900
     20 N19        -23.8190    35.3960    30.3610 nb         1 O4W      -0.632000
     21 O20        -24.4740    32.3970    28.5460 os         1 O4W      -0.322100
     22 C21        -24.3750    31.0000    28.6670 cy         1 O4W       0.123300
     23 C22        -25.4570    30.3080    29.5290 cy         1 O4W       0.093000
     24 C23        -24.9660    30.2950    27.4390 cy         1 O4W       0.093000
     25 N24        -25.9490    29.6790    28.3190 nj         1 O4W      -0.419800
     26 C25        -26.8060    28.6520    28.2270 c          1 O4W       0.670700
     27 O26        -27.3650    28.2110    29.2280 o          1 O4W      -0.617100
     28 C27        -27.0560    28.0850    26.8980 cc         1 O4W      -0.282600
     29 C28        -26.6720    28.4740    25.5970 cc         1 O4W       0.272900
     30 N29        -27.1550    27.6510    24.6910 nd         1 O4W      -0.527800
     31 N30        -27.8430    26.7340    25.3720 na         1 O4W       0.135800
     32 C31        -27.8180    26.9490    26.6880 cd         1 O4W      -0.097000
     33 H1         -24.3430    32.2660    37.0180 ha         1 O4W       0.137000
     34 H2         -20.2940    30.9030    37.4910 ha         1 O4W       0.136000
     35 H3         -19.7890    31.4960    35.1370 ha         1 O4W       0.141000
     36 H4         -23.6830    31.6050    31.0580 ha         1 O4W       0.133000
     37 H5         -27.7740    25.0460    24.1460 h1         1 O4W       0.060367
     38 H6         -29.0420    25.0470    25.3830 h1         1 O4W       0.060367
     39 H7         -29.2100    26.0680    23.9470 h1         1 O4W       0.060367
     40 H8         -25.7780    32.0100    34.7810 hc         1 O4W       0.050533
     41 H9         -25.7300    32.5360    33.1040 hc         1 O4W       0.050533
     42 H10        -24.7850    31.1250    33.6160 hc         1 O4W       0.050533
     43 H11        -25.0660    34.3260    35.5680 hc         1 O4W       0.050533
     44 H12        -23.6140    35.0800    34.8990 hc         1 O4W       0.050533
     45 H13        -25.0600    34.8710    33.8970 hc         1 O4W       0.050533
     46 H14        -24.4510    34.9420    28.4540 h4         1 O4W       0.036100
     47 H15        -23.1750    35.6610    32.3030 h4         1 O4W       0.031100
     48 H16        -23.3520    30.7020    28.9080 h1         1 O4W       0.073700
     49 H17        -26.1720    30.9790    30.0100 h1         1 O4W       0.068200
     50 H18        -25.0700    29.6060    30.2710 h1         1 O4W       0.068200
     51 H19        -24.2920    29.5910    26.9480 h1         1 O4W       0.068200
     52 H20        -25.3880    30.9740    26.6950 h1         1 O4W       0.068200
     53 H21        -26.0830    29.3210    25.2800 h4         1 O4W       0.039100
     54 H22        -28.3270    26.3020    27.3840 h4         1 O4W       0.171000
@<TRIPOS>BOND
     1     1     3 ar  
     2     1     5 ar  
     3     1    15 1   
     4     2     3 ar  
     5     2     4 ar  
     6     2    12 1   
     7     3    33 1   
     8     4     6 ar  
     9     4     7 1   
    10     5     6 ar  
    11     5    34 1   
    12     6    35 1   
    13     7     8 2   
    14     7    14 1   
    15     9    11 ar  
    16     9    14 1   
    17     9    19 ar  
    18    10    11 ar  
    19    10    18 ar  
    20    10    21 1   
    21    11    36 1   
    22    12    14 1   
    23    12    16 1   
    24    12    17 1   
    25    13    31 1   
    26    13    37 1   
    27    13    38 1   
    28    13    39 1   
    29    16    40 1   
    30    16    41 1   
    31    16    42 1   
    32    17    43 1   
    33    17    44 1   
    34    17    45 1   
    35    18    20 ar  
    36    18    46 1   
    37    19    20 ar  
    38    19    47 1   
    39    21    22 1   
    40    22    23 1   
    41    22    24 1   
    42    22    48 1   
    43    23    25 1   
    44    23    49 1   
    45    23    50 1   
    46    24    25 1   
    47    24    51 1   
    48    24    52 1   
    49    25    26 1   
    50    26    27 2   
    51    26    28 1   
    52    28    29 1   
    53    28    32 2   
    54    29    30 2   
    55    29    53 1   
    56    30    31 1   
    57    31    32 1   
    58    32    54 1   
@<TRIPOS>SUBSTRUCTURE
     1 O4W         1 TEMP              0 ****  ****    0 ROOT
