@<TRIPOS>MOLECULE
O4Y
   25    26     1     0     0
SMALL
abcg2


@<TRIPOS>ATOM
      1 C1           2.7290     0.1800    -1.8540 c3         1 O4Y      -0.078100
      2 C2           2.1520     0.4520    -0.4710 c3         1 O4Y      -0.073300
      3 C3           2.9620    -0.2180     0.6730 c          1 O4Y       0.717000
      4 O1           4.1860    -0.0120     0.6250 o          1 O4Y      -0.709000
      5 O2           2.3280    -0.8620     1.5260 o          1 O4Y      -0.709000
      6 N1           0.7350     0.0850    -0.4040 n          1 O4Y      -0.275300
      7 C4           0.4120    -1.2320    -0.5140 cc         1 O4Y       0.562800
      8 N2          -0.7620    -1.7370    -0.4130 nd         1 O4Y      -0.685100
      9 C5          -1.7940    -0.8680    -0.1500 ca         1 O4Y       0.210400
     10 C6          -3.0950    -1.3730    -0.0200 ca         1 O4Y      -0.124000
     11 C7          -4.1440    -0.5190     0.2400 ca         1 O4Y      -0.089000
     12 C8          -3.9260     0.8580     0.3760 ca         1 O4Y      -0.169000
     13 C9          -2.6520     1.3670     0.2510 ca         1 O4Y      -0.036000
     14 C10         -1.5780     0.5100    -0.0110 ca         1 O4Y      -0.214600
     15 C11         -0.2250     1.0410    -0.1350 c          1 O4Y       0.573600
     16 O3           0.0550     2.2230    -0.0150 o          1 O4Y      -0.566000
     17 H1           2.7470    -0.8830    -2.0970 hc         1 O4Y       0.026700
     18 H2           2.1560     0.6950    -2.6250 hc         1 O4Y       0.026700
     19 H3           3.7530     0.5430    -1.8970 hc         1 O4Y       0.026700
     20 H4           2.1910     1.5280    -0.2980 h1         1 O4Y       0.082700
     21 H6           1.2390    -1.8950    -0.7330 h5         1 O4Y       0.059800
     22 H7          -3.2550    -2.4380    -0.1280 ha         1 O4Y       0.120000
     23 H8          -5.1470    -0.9140     0.3400 ha         1 O4Y       0.096000
     24 H9          -4.7580     1.5190     0.5780 ha         1 O4Y       0.100000
     25 H10         -2.4770     2.4290     0.3540 ha         1 O4Y       0.124000
@<TRIPOS>BOND
     1     1     2 1   
     2     1    17 1   
     3     1    18 1   
     4     1    19 1   
     5     2     3 1   
     6     2     6 1   
     7     2    20 1   
     8     3     4 1   
     9     3     5 1   
    10     6     7 1   
    11     6    15 1   
    12     7     8 2   
    13     7    21 1   
    14     8     9 1   
    15     9    10 ar  
    16     9    14 ar  
    17    10    11 ar  
    18    10    22 1   
    19    11    12 ar  
    20    11    23 1   
    21    12    13 ar  
    22    12    24 1   
    23    13    14 ar  
    24    13    25 1   
    25    14    15 1   
    26    15    16 2   
@<TRIPOS>SUBSTRUCTURE
     1 O4Y         1 TEMP              0 ****  ****    0 ROOT
