@<TRIPOS>MOLECULE
O4Y
   25    26     1     0     0
SMALL
No Charge or Current Charge


@<TRIPOS>ATOM
      1 C1           2.7040     0.4640    -1.8270 c3         1 O4Y      -0.078100
      2 C2           2.2100     0.4570    -0.3580 c3         1 O4Y      -0.073300
      3 C3           3.1400    -0.3500     0.5920 c          1 O4Y       0.717000
      4 O1           3.7050    -1.3470     0.1650 o          1 O4Y      -0.709000
      5 O2           3.2470     0.0380     1.7450 o          1 O4Y      -0.709000
      6 N1           0.7740     0.0310    -0.2690 n          1 O4Y      -0.275300
      7 C4           0.4380    -1.3170    -0.3610 cc         1 O4Y       0.562800
      8 N2          -0.7880    -1.8460    -0.2880 nd         1 O4Y      -0.685100
      9 C5          -1.8180    -0.9160    -0.1120 ca         1 O4Y       0.210400
     10 C6          -3.1300    -1.4170    -0.0240 ca         1 O4Y      -0.124000
     11 C7          -4.2240    -0.5530     0.1490 ca         1 O4Y      -0.089000
     12 C8          -4.0110     0.8300     0.2350 ca         1 O4Y      -0.169000
     13 C9          -2.7070     1.3430     0.1480 ca         1 O4Y      -0.036000
     14 C10         -1.6100     0.4690    -0.0250 ca         1 O4Y      -0.214600
     15 C11         -0.2250     0.9940    -0.1180 c          1 O4Y       0.573600
     16 O3           0.0110     2.1970    -0.0660 o          1 O4Y      -0.566000
     17 H1           2.6580    -0.5400    -2.2670 hc         1 O4Y       0.026700
     18 H2           2.0820     1.1320    -2.4360 hc         1 O4Y       0.026700
     19 H3           3.7400     0.8190    -1.8830 hc         1 O4Y       0.026700
     20 H4           2.2960     1.4890     0.0000 h1         1 O4Y       0.082700
     21 H6           1.2830    -1.9760    -0.5140 h5         1 O4Y       0.059800
     22 H7          -3.3020    -2.4880    -0.0910 ha         1 O4Y       0.120000
     23 H8          -5.2320    -0.9560     0.2150 ha         1 O4Y       0.096000
     24 H9          -4.8540     1.5040     0.3680 ha         1 O4Y       0.100000
     25 H10         -2.5530     2.4180     0.2160 ha         1 O4Y       0.124000
@<TRIPOS>BOND
     1     1     2 1   
     2     1    17 1   
     3     1    18 1   
     4     1    19 1   
     5     2     3 1   
     6     2     6 1   
     7     2    20 1   
     8     3     4 1   
     9     3     5 1   
    10     6     7 1   
    11     6    15 1   
    12     7     8 2   
    13     7    21 1   
    14     8     9 1   
    15     9    10 ar  
    16     9    14 ar  
    17    10    11 ar  
    18    10    22 1   
    19    11    12 ar  
    20    11    23 1   
    21    12    13 ar  
    22    12    24 1   
    23    13    14 ar  
    24    13    25 1   
    25    14    15 1   
    26    15    16 2   
@<TRIPOS>SUBSTRUCTURE
     1 O4Y         1 TEMP              0 ****  ****    0 ROOT
