@<TRIPOS>MOLECULE
O4Z
   44    45     1     0     0
SMALL
bcc


@<TRIPOS>ATOM
      1 C10        -18.1210    36.5870    41.7660 ca         1 O4Z       0.008000
      2 C12        -20.6600    36.8700    45.3760 c          1 O4Z       0.794100
      3 C16        -23.6450    37.3320    46.4920 c3         1 O4Z       0.131800
      4 C20        -26.5410    36.3100    48.2130 ca         1 O4Z      -0.082000
      5 C24        -24.8750    36.1790    49.8890 ca         1 O4Z       0.128900
      6 C05        -17.5240    35.3550    41.5320 ca         1 O4Z      -0.318500
      7 C06        -17.6950    34.3140    42.4350 ca         1 O4Z       0.008000
      8 C07        -18.4650    34.5140    43.5610 ca         1 O4Z      -0.204000
      9 C08        -19.0830    35.7470    43.8100 ca         1 O4Z       0.152600
     10 C09        -18.8940    36.7910    42.8930 ca         1 O4Z      -0.204000
     11 C15        -22.2560    37.5260    47.1100 c3         1 O4Z       0.075000
     12 C18        -24.9220    38.2320    48.3900 c3         1 O4Z       0.209100
     13 C19        -25.4430    36.8920    48.8460 ca         1 O4Z      -0.126300
     14 C21        -27.0430    35.0830    48.6130 ca         1 O4Z      -0.147000
     15 C22        -26.4450    34.4000    49.6660 ca         1 O4Z      -0.101000
     16 C23        -25.3500    34.9500    50.3130 ca         1 O4Z      -0.173000
     17 N01        -15.2070    35.9700    40.4060 n8         1 O4Z      -0.888700
     18 N11        -19.8330    35.8420    44.9660 ns         1 O4Z      -0.488100
     19 N14        -21.2720    36.6250    46.5550 ns         1 O4Z      -0.581900
     20 N17        -24.6750    38.2380    46.9570 n7         1 O4Z      -0.808200
     21 O03        -16.3340    33.6830    39.9240 o          1 O4Z      -0.618800
     22 O04        -17.2110    35.8110    38.9540 o          1 O4Z      -0.618800
     23 O13        -20.8090    37.9060    44.7460 o          1 O4Z      -0.613100
     24 S02        -16.5810    35.1130    40.0670 sy         1 O4Z       1.273200
     25 H1         -17.9890    37.4060    41.0710 ha         1 O4Z       0.155000
     26 H2         -23.5680    37.4490    45.4090 h1         1 O4Z       0.062200
     27 H3         -23.9710    36.3020    46.6700 h1         1 O4Z       0.062200
     28 H4         -26.9990    36.8400    47.3870 ha         1 O4Z       0.150000
     29 H5         -17.2400    33.3470    42.2690 ha         1 O4Z       0.155000
     30 H6         -18.5990    33.6960    44.2590 ha         1 O4Z       0.152500
     31 H7         -19.3430    37.7560    43.0500 ha         1 O4Z       0.152500
     32 H8         -22.2800    37.3440    48.1840 h1         1 O4Z       0.060700
     33 H9         -21.9240    38.5570    46.9720 h1         1 O4Z       0.060700
     34 H10        -24.0520    38.5230    48.9890 h1         1 O4Z       0.045700
     35 H11        -25.6860    38.9870    48.5900 h1         1 O4Z       0.045700
     36 H12        -27.8980    34.6570    48.1050 ha         1 O4Z       0.138000
     37 H13        -26.8280    33.4400    49.9850 ha         1 O4Z       0.136000
     38 H14        -24.8660    34.4370    51.1330 ha         1 O4Z       0.149000
     39 H15        -14.6240    35.5110    41.0990 hn         1 O4Z       0.414300
     40 H16        -14.6680    36.1470    39.5630 hn         1 O4Z       0.414300
     41 H17        -19.8120    35.0190    45.5480 hn         1 O4Z       0.313500
     42 H18        -21.1790    35.7200    46.9870 hn         1 O4Z       0.312500
     43 H19        -24.4590    39.1830    46.6670 hn         1 O4Z       0.367800
     44 F25        -23.8070    36.6910    50.5320 f          1 O4Z      -0.152900
@<TRIPOS>BOND
     1     1     6 ar  
     2     1    10 ar  
     3     1    25 1   
     4     2    18 1   
     5     2    19 1   
     6     2    23 2   
     7     3    11 1   
     8     3    20 1   
     9     3    26 1   
    10     3    27 1   
    11     4    13 ar  
    12     4    14 ar  
    13     4    28 1   
    14     5    13 ar  
    15     5    16 ar  
    16     5    44 1   
    17     6     7 ar  
    18     6    24 1   
    19     7     8 ar  
    20     7    29 1   
    21     8     9 ar  
    22     8    30 1   
    23     9    10 ar  
    24     9    18 1   
    25    10    31 1   
    26    11    19 1   
    27    11    32 1   
    28    11    33 1   
    29    12    13 1   
    30    12    20 1   
    31    12    34 1   
    32    12    35 1   
    33    14    15 ar  
    34    14    36 1   
    35    15    16 ar  
    36    15    37 1   
    37    16    38 1   
    38    17    24 1   
    39    17    39 1   
    40    17    40 1   
    41    18    41 1   
    42    19    42 1   
    43    20    43 1   
    44    21    24 2   
    45    22    24 2   
@<TRIPOS>SUBSTRUCTURE
     1 O4Z         1 TEMP              0 ****  ****    0 ROOT
