@<TRIPOS>MOLECULE
O4Z
   44    45     1     0     0
SMALL
No Charge or Current Charge


@<TRIPOS>ATOM
      1 C10        -18.3920    36.3490    41.4450 ca         1 O4Z       0.026000
      2 C12        -20.7180    37.0610    45.2770 c          1 O4Z       0.660100
      3 C16        -23.6320    37.5640    46.6160 c3         1 O4Z       0.131800
      4 C20        -26.7400    36.4380    48.3810 ca         1 O4Z      -0.064000
      5 C24        -24.7520    35.8330    49.6420 ca         1 O4Z       0.164000
      6 C05        -17.5130    35.2500    41.4510 ca         1 O4Z      -0.318500
      7 C06        -17.4070    34.4470    42.6030 ca         1 O4Z       0.026000
      8 C07        -18.1780    34.7490    43.7380 ca         1 O4Z      -0.186000
      9 C08        -19.0590    35.8460    43.7450 ca         1 O4Z       0.060000
     10 C09        -19.1600    36.6430    42.5850 ca         1 O4Z      -0.186000
     11 C15        -22.2050    37.7680    47.1880 c3         1 O4Z       0.075000
     12 C18        -24.9430    38.2040    48.6880 c3         1 O4Z       0.209100
     13 C19        -25.4830    36.7940    48.9110 ca         1 O4Z      -0.126300
     14 C21        -27.2560    35.1440    48.5770 ca         1 O4Z      -0.129000
     15 C22        -26.5200    34.1940    49.3050 ca         1 O4Z      -0.083000
     16 C23        -25.2670    34.5410    49.8370 ca         1 O4Z      -0.155000
     17 N01        -15.2290    35.8290    40.2330 n8         1 O4Z      -0.999100
     18 N11        -19.8040    36.0810    44.9320 ns         1 O4Z      -0.162000
     19 N14        -21.2060    36.8970    46.5540 ns         1 O4Z      -0.514900
     20 N17        -24.6380    38.4510    47.2590 n7         1 O4Z      -0.863400
     21 O03        -16.0030    33.5220    40.0850 o          1 O4Z      -0.548000
     22 O04        -17.1820    35.4060    38.7950 o          1 O4Z      -0.548000
     23 O13        -21.0740    37.9840    44.5580 o          1 O4Z      -0.613100
     24 S02        -16.5370    34.8790    39.9970 sy         1 O4Z       1.131600
     25 H1         -18.4850    36.9790    40.5610 ha         1 O4Z       0.137000
     26 H2         -23.6030    37.7650    45.5360 h1         1 O4Z       0.062200
     27 H3         -23.9130    36.5070    46.7330 h1         1 O4Z       0.062200
     28 H4         -27.3150    37.1670    47.8130 ha         1 O4Z       0.132000
     29 H5         -16.7340    33.5900    42.6270 ha         1 O4Z       0.137000
     30 H6         -18.0870    34.1210    44.6210 ha         1 O4Z       0.134500
     31 H7         -19.8280    37.4970    42.5430 ha         1 O4Z       0.134500
     32 H8         -22.2050    37.5570    48.2640 h1         1 O4Z       0.060700
     33 H9         -21.9010    38.8140    47.0490 h1         1 O4Z       0.060700
     34 H10        -24.0550    38.3770    49.3110 h1         1 O4Z       0.045700
     35 H11        -25.7040    38.9190    49.0310 h1         1 O4Z       0.045700
     36 H12        -28.2260    34.8790    48.1630 ha         1 O4Z       0.120000
     37 H13        -26.9200    33.1930    49.4550 ha         1 O4Z       0.118000
     38 H14        -24.6930    33.8100    50.4010 ha         1 O4Z       0.131000
     39 H15        -15.2760    36.0120    41.2320 hn         1 O4Z       0.469500
     40 H16        -14.4790    35.1480    40.1440 hn         1 O4Z       0.469500
     41 H17        -19.6290    35.4010    45.6580 hn         1 O4Z       0.147000
     42 H18        -20.8530    36.1070    47.0820 hn         1 O4Z       0.312500
     43 H19        -24.3290    39.4270    47.1570 hn         1 O4Z       0.423000
     44 F25        -23.5430    36.1390    50.1660 f          1 O4Z      -0.188000
@<TRIPOS>BOND
     1     1     6 ar  
     2     1    10 ar  
     3     1    25 1   
     4     2    18 1   
     5     2    19 1   
     6     2    23 2   
     7     3    11 1   
     8     3    20 1   
     9     3    26 1   
    10     3    27 1   
    11     4    13 ar  
    12     4    14 ar  
    13     4    28 1   
    14     5    13 ar  
    15     5    16 ar  
    16     5    44 1   
    17     6     7 ar  
    18     6    24 1   
    19     7     8 ar  
    20     7    29 1   
    21     8     9 ar  
    22     8    30 1   
    23     9    10 ar  
    24     9    18 1   
    25    10    31 1   
    26    11    19 1   
    27    11    32 1   
    28    11    33 1   
    29    12    13 1   
    30    12    20 1   
    31    12    34 1   
    32    12    35 1   
    33    14    15 ar  
    34    14    36 1   
    35    15    16 ar  
    36    15    37 1   
    37    16    38 1   
    38    17    24 1   
    39    17    39 1   
    40    17    40 1   
    41    18    41 1   
    42    19    42 1   
    43    20    43 1   
    44    21    24 2   
    45    22    24 2   
@<TRIPOS>SUBSTRUCTURE
     1 O4Z         1 TEMP              0 ****  ****    0 ROOT
