@<TRIPOS>MOLECULE
O50
   50    53     1     0     0
SMALL
abcg2


@<TRIPOS>ATOM
      1 C10        109.6680   108.3980   104.4110 ca         1 O50       0.347300
      2 C12        110.3880   110.5650   104.1800 ca         1 O50       0.331900
      3 C13        110.9870   110.5690   105.4260 ca         1 O50      -0.134000
      4 C14        108.9460   107.2140   103.8320 c3         1 O50      -0.145400
      5 C16        114.4240   108.0350   111.3660 c          1 O50       0.609100
      6 C19        116.6800   106.9990   110.9710 ca         1 O50       0.496900
      7 C21        117.3580   104.8990   111.5540 ca         1 O50       0.413900
      8 C22        118.5560   105.0020   110.8490 cp         1 O50      -0.236500
      9 C23        118.7920   106.2090   110.1790 ca         1 O50      -0.028000
     10 C24        117.8530   107.2150   110.2340 ca         1 O50      -0.218000
     11 C25        119.5170   103.8870   110.8320 cp         1 O50       0.369500
     12 C27        119.9290   101.6470   111.0030 ca         1 O50       0.296900
     13 C28        121.2860   101.8680   110.7990 ca         1 O50       0.278900
     14 N29        121.7690   103.1000   110.6270 nb         1 O50      -0.625000
     15 C02        110.9070   108.8960   108.7000 ca         1 O50      -0.099300
     16 C03        111.6280   108.9220   109.8910 ca         1 O50      -0.058000
     17 C04        112.9270   109.4090   109.9340 ca         1 O50      -0.134300
     18 C05        113.4620   109.8930   108.7430 ca         1 O50       0.338900
     19 C07        111.5550   109.3850   107.5520 cp         1 O50       0.397500
     20 C08        110.9100   109.4180   106.2140 cp         1 O50      -0.100500
     21 C09        110.2410   108.3220   105.6830 ca         1 O50      -0.150000
     22 C30        120.8910   104.0990   110.6510 ca         1 O50       0.290900
     23 N06        112.7980   109.8890   107.5920 nb         1 O50      -0.659000
     24 N11        109.7370   109.5100   103.6710 nb         1 O50      -0.667000
     25 N18        115.7520   108.0450   111.0230 ns         1 O50      -0.328900
     26 N20        116.4430   105.8660   111.6260 nb         1 O50      -0.677000
     27 N26        119.0490   102.6440   111.0160 nb         1 O50      -0.639000
     28 O17        113.8020   107.0530   111.7300 o          1 O50      -0.525100
     29 H1         110.4260   111.4510   103.5550 h4         1 O50       0.020100
     30 H2         111.5020   111.4490   105.7860 ha         1 O50       0.134000
     31 H3         108.5960   107.4400   102.8260 hc         1 O50       0.052367
     32 H4         109.6000   106.3410   103.7910 hc         1 O50       0.052367
     33 H5         108.0860   106.9450   104.4510 hc         1 O50       0.052367
     34 H6         114.4770   110.1990   111.1870 hc         1 O50       0.072700
     35 H7         113.0970   109.5280   112.0680 hc         1 O50       0.072700
     36 H8         117.1380   103.9910   112.1020 h4         1 O50       0.044100
     37 H9         119.6920   106.3540   109.5960 ha         1 O50       0.121000
     38 H10        118.0040   108.1490   109.7100 ha         1 O50       0.123000
     39 H11        119.5470   100.6440   111.1530 h4         1 O50       0.033100
     40 H12        121.9880   101.0430   110.7780 h4         1 O50       0.033100
     41 H13        109.4400   107.3370   108.4300 hc         1 O50       0.050033
     42 H14        109.0660   108.4870   109.7080 hc         1 O50       0.050033
     43 H15        108.8590   108.9430   108.0100 hc         1 O50       0.050033
     44 H16        111.1580   108.5680   110.8020 ha         1 O50       0.130000
     45 H17        114.4650   110.3070   108.7250 h4         1 O50       0.014100
     46 H18        110.1710   107.3960   106.2370 ha         1 O50       0.124000
     47 H19        121.2880   105.1000   110.5380 h4         1 O50       0.029100
     48 H20        116.0970   108.9220   110.6630 hn         1 O50       0.150000
     49 C15        113.7430   109.3930   111.2010 c3         1 O50      -0.108100
     50 C01        109.4880   108.3920   108.7080 c3         1 O50      -0.045800
@<TRIPOS>BOND
     1     1     4 1   
     2     1    21 ar  
     3     1    24 ar  
     4     2     3 ar  
     5     2    24 ar  
     6     2    29 1   
     7     3    20 ar  
     8     3    30 1   
     9     4    31 1   
    10     4    32 1   
    11     4    33 1   
    12     5    25 1   
    13     5    28 2   
    14     5    49 1   
    15     6    10 ar  
    16     6    25 1   
    17     6    26 ar  
    18     7     8 ar  
    19     7    26 ar  
    20     7    36 1   
    21     8     9 ar  
    22     8    11 1   
    23     9    10 ar  
    24     9    37 1   
    25    10    38 1   
    26    11    22 ar  
    27    11    27 ar  
    28    12    13 ar  
    29    12    27 ar  
    30    12    39 1   
    31    13    14 ar  
    32    13    40 1   
    33    14    22 ar  
    34    15    16 ar  
    35    15    19 ar  
    36    15    50 1   
    37    16    17 ar  
    38    16    44 1   
    39    17    18 ar  
    40    17    49 1   
    41    18    23 ar  
    42    18    45 1   
    43    19    20 1   
    44    19    23 ar  
    45    20    21 ar  
    46    21    46 1   
    47    22    47 1   
    48    25    48 1   
    49    34    49 1   
    50    35    49 1   
    51    41    50 1   
    52    42    50 1   
    53    43    50 1   
@<TRIPOS>SUBSTRUCTURE
     1 O50         1 TEMP              0 ****  ****    0 ROOT
