@<TRIPOS>MOLECULE
O50
   50    53     1     0     0
SMALL
No Charge or Current Charge


@<TRIPOS>ATOM
      1 C10        109.4300   108.7350   104.2890 ca         1 O50       0.347300
      2 C12        110.4350   110.8110   104.0910 ca         1 O50       0.331900
      3 C13        111.0310   110.6950   105.3580 ca         1 O50      -0.134000
      4 C14        108.5550   107.6730   103.6510 c3         1 O50      -0.145400
      5 C16        114.3880   107.6590   111.2230 c          1 O50       0.609100
      6 C19        116.7390   106.8160   110.8630 ca         1 O50       0.496900
      7 C21        117.6560   104.9190   111.8070 ca         1 O50       0.413900
      8 C22        118.7810   104.9390   110.9400 cp         1 O50      -0.236500
      9 C23        118.8450   106.0020   110.0020 ca         1 O50      -0.028000
     10 C24        117.8130   106.9510   109.9770 ca         1 O50      -0.218000
     11 C25        119.8450   103.8830   111.0310 cp         1 O50       0.369500
     12 C27        120.5040   101.8230   111.8660 ca         1 O50       0.296900
     13 C28        121.7600   101.9420   111.2160 ca         1 O50       0.278900
     14 N29        122.0890   103.0280   110.4650 nb         1 O50      -0.625000
     15 C02        110.7390   108.9290   108.6550 ca         1 O50      -0.099300
     16 C03        111.4410   108.7950   109.8680 ca         1 O50      -0.058000
     17 C04        112.8080   109.1210   109.9060 ca         1 O50      -0.134300
     18 C05        113.4200   109.5790   108.7250 ca         1 O50       0.338900
     19 C07        111.4480   109.3780   107.4990 cp         1 O50       0.397500
     20 C08        110.8120   109.5390   106.1480 cp         1 O50      -0.100500
     21 C09        109.9930   108.5390   105.5650 ca         1 O50      -0.150000
     22 C30        121.1250   103.9890   110.3820 ca         1 O50       0.290900
     23 N06        112.7580   109.7120   107.5570 nb         1 O50      -0.659000
     24 N11        109.6440   109.8520   103.5590 nb         1 O50      -0.667000
     25 N18        115.7260   107.7820   110.9100 ns         1 O50      -0.328900
     26 N20        116.6640   105.8380   111.7820 nb         1 O50      -0.677000
     27 N26        119.5460   102.7860   111.7800 nb         1 O50      -0.639000
     28 O17        113.8360   106.5940   111.4650 o          1 O50      -0.525100
     29 H1         110.5960   111.7000   103.4820 h4         1 O50       0.020100
     30 H2         111.6570   111.5040   105.7250 ha         1 O50       0.134000
     31 H3         107.7960   108.1170   102.9960 hc         1 O50       0.052367
     32 H4         109.1590   106.9830   103.0510 hc         1 O50       0.052367
     33 H5         108.0300   107.0840   104.4120 hc         1 O50       0.052367
     34 H6         114.3120   109.8230   111.2760 hc         1 O50       0.072700
     35 H7         112.9340   109.0020   112.0610 hc         1 O50       0.072700
     36 H8         117.5440   104.1440   112.5650 h4         1 O50       0.044100
     37 H9         119.6680   106.0960   109.2980 ha         1 O50       0.121000
     38 H10        117.8410   107.7790   109.2740 ha         1 O50       0.123000
     39 H11        120.2660   100.9440   112.4630 h4         1 O50       0.033100
     40 H12        122.5100   101.1560   111.3010 h4         1 O50       0.033100
     41 H13        109.0560   107.5790   108.3570 hc         1 O50       0.050033
     42 H14        108.8010   108.7650   109.6420 hc         1 O50       0.050033
     43 H15        108.6960   109.2720   107.9600 hc         1 O50       0.050033
     44 H16        110.9330   108.4470   110.7650 ha         1 O50       0.130000
     45 H17        114.4750   109.8490   108.7130 h4         1 O50       0.014100
     46 H18        109.8070   107.6060   106.0880 ha         1 O50       0.124000
     47 H19        121.3860   104.8640   109.7910 h4         1 O50       0.029100
     48 H20        116.0310   108.7130   110.6640 hn         1 O50       0.150000
     49 C15        113.6110   108.9820   111.2000 c3         1 O50      -0.108100
     50 C01        109.2430   108.6190   108.6490 c3         1 O50      -0.045800
@<TRIPOS>BOND
     1     1     4 1   
     2     1    21 ar  
     3     1    24 ar  
     4     2     3 ar  
     5     2    24 ar  
     6     2    29 1   
     7     3    20 ar  
     8     3    30 1   
     9     4    31 1   
    10     4    32 1   
    11     4    33 1   
    12     5    25 1   
    13     5    28 2   
    14     5    49 1   
    15     6    10 ar  
    16     6    25 1   
    17     6    26 ar  
    18     7     8 ar  
    19     7    26 ar  
    20     7    36 1   
    21     8     9 ar  
    22     8    11 1   
    23     9    10 ar  
    24     9    37 1   
    25    10    38 1   
    26    11    22 ar  
    27    11    27 ar  
    28    12    13 ar  
    29    12    27 ar  
    30    12    39 1   
    31    13    14 ar  
    32    13    40 1   
    33    14    22 ar  
    34    15    16 ar  
    35    15    19 ar  
    36    15    50 1   
    37    16    17 ar  
    38    16    44 1   
    39    17    18 ar  
    40    17    49 1   
    41    18    23 ar  
    42    18    45 1   
    43    19    20 1   
    44    19    23 ar  
    45    20    21 ar  
    46    21    46 1   
    47    22    47 1   
    48    25    48 1   
    49    34    49 1   
    50    35    49 1   
    51    41    50 1   
    52    42    50 1   
    53    43    50 1   
@<TRIPOS>SUBSTRUCTURE
     1 O50         1 TEMP              0 ****  ****    0 ROOT
