@<TRIPOS>MOLECULE
O51
   43    44     1     0     0
SMALL
No Charge or Current Charge


@<TRIPOS>ATOM
      1 C02          7.9900     0.6780    -0.0520 c3         1 O51       0.134800
      2 C03          6.6340     1.3400    -0.3970 c3         1 O51       0.101000
      3 C05          4.1870     0.7730    -0.3890 c          1 O51       0.648100
      4 C07          1.8210    -0.0140    -0.5370 c6         1 O51       0.114000
      5 C08          0.7580    -0.9040     0.1460 c6         1 O51      -0.178700
      6 C09         -0.6400    -0.7400    -0.4830 c          1 O51       0.616100
      7 O10         -0.8470    -1.0840    -1.6410 o          1 O51      -0.567100
      8 C12         -2.9760     0.1230     0.1560 ca         1 O51       0.014000
      9 C13         -3.6690    -0.1100    -1.0530 ca         1 O51      -0.176000
     10 C14         -5.0290     0.2240    -1.1650 ca         1 O51       0.210000
     11 C16         -5.7170     0.7940    -0.0780 ca         1 O51       0.035000
     12 C18         -5.0350     1.0280     1.1260 ca         1 O51      -0.047000
     13 C19         -3.6730     0.6940     1.2390 ca         1 O51      -0.184000
     14 C20          1.1880    -2.3730     0.3200 c6         1 O51      -0.070400
     15 C21          2.5210    -2.4060     1.0840 c6         1 O51      -0.106400
     16 C22          3.6180    -1.5860     0.3660 c6         1 O51       0.092000
     17 F15         -5.6720    -0.0090    -2.3320 f          1 O51      -0.158000
     18 N01          9.1460     1.5580    -0.3340 n8         1 O51      -0.996200
     19 N04          5.4950     0.4610    -0.1110 ns         1 O51      -0.514900
     20 N06          3.2230    -0.1970    -0.0440 n          1 O51      -0.415800
     21 N11         -1.6030    -0.1860     0.3510 ns         1 O51      -0.145000
     22 O23          3.8840     1.8380    -0.9050 o          1 O51      -0.634100
     23 Cl1         -7.4240     1.2170    -0.2080 cl         1 O51      -0.169000
     24 H1           8.0040     0.4170     1.0160 h1         1 O51       0.029700
     25 H2           8.1040    -0.2480    -0.6330 h1         1 O51       0.029700
     26 H3           6.5190     2.2640     0.1870 h1         1 O51       0.060700
     27 H4           6.6160     1.6040    -1.4630 h1         1 O51       0.060700
     28 H5           1.8160    -0.2210    -1.6180 h1         1 O51       0.082700
     29 H6           1.5250     1.0390    -0.4180 h1         1 O51       0.082700
     30 H7           0.6630    -0.5050     1.1660 hc         1 O51       0.064700
     31 H8          -3.1810    -0.5470    -1.9160 ha         1 O51       0.169000
     32 H9          -5.5600     1.4680     1.9710 ha         1 O51       0.131000
     33 H10         -3.1580     0.8810     2.1790 ha         1 O51       0.118000
     34 H11          0.4230    -2.9370     0.8730 hc         1 O51       0.052700
     35 H12          1.3000    -2.8590    -0.6600 hc         1 O51       0.052700
     36 H13          2.3750    -2.0060     2.0970 hc         1 O51       0.049200
     37 H14          2.8570    -3.4440     1.2080 hc         1 O51       0.049200
     38 H15          4.4860    -1.5470     1.0380 h1         1 O51       0.056700
     39 H16          3.9310    -2.1310    -0.5370 h1         1 O51       0.056700
     40 H17         10.0150     1.0500    -0.1210 hn         1 O51       0.398500
     41 H18          9.2090     1.7200    -1.3470 hn         1 O51       0.398500
     42 H20          5.6700    -0.4350     0.3210 hn         1 O51       0.299500
     43 H21         -1.2640     0.0400     1.2770 hn         1 O51       0.154000
@<TRIPOS>BOND
     1     1     2 1   
     2     1    18 1   
     3     1    24 1   
     4     1    25 1   
     5     2    19 1   
     6     2    26 1   
     7     2    27 1   
     8     3    19 1   
     9     3    20 1   
    10     3    22 2   
    11     4     5 1   
    12     4    20 1   
    13     4    28 1   
    14     4    29 1   
    15     5     6 1   
    16     5    14 1   
    17     5    30 1   
    18     6     7 2   
    19     6    21 1   
    20     8     9 ar  
    21     8    13 ar  
    22     8    21 1   
    23     9    10 ar  
    24     9    31 1   
    25    10    11 ar  
    26    10    17 1   
    27    11    12 ar  
    28    11    23 1   
    29    12    13 ar  
    30    12    32 1   
    31    13    33 1   
    32    14    15 1   
    33    14    34 1   
    34    14    35 1   
    35    15    16 1   
    36    15    36 1   
    37    15    37 1   
    38    16    20 1   
    39    16    38 1   
    40    16    39 1   
    41    18    40 1   
    42    18    41 1   
    43    19    42 1   
    44    21    43 1   
@<TRIPOS>SUBSTRUCTURE
     1 O51         1 TEMP              0 ****  ****    0 ROOT
