@<TRIPOS>MOLECULE
O51
   43    44     1     0     0
SMALL
bcc


@<TRIPOS>ATOM
      1 C02          7.4840     0.7900     0.4580 c3         1 O51       0.134800
      2 C03          6.1420     1.2690    -0.0720 c3         1 O51       0.101000
      3 C05          4.1010     0.2850    -0.9780 c          1 O51       0.782100
      4 C07          1.9250    -0.6550    -1.5190 c6         1 O51       0.114000
      5 C08          0.9920    -0.6710    -0.3060 c6         1 O51      -0.178700
      6 C09         -0.4580    -0.5420    -0.7170 c          1 O51       0.683100
      7 O10         -0.8850    -0.9790    -1.7700 o          1 O51      -0.567100
      8 C12         -2.6100     0.2860     0.2250 ca         1 O51       0.106600
      9 C13         -3.4660    -0.1110    -0.8020 ca         1 O51      -0.194000
     10 C14         -4.8160     0.1490    -0.6790 ca         1 O51       0.174900
     11 C16         -5.3530     0.7910     0.4220 ca         1 O51      -0.056600
     12 C18         -4.4970     1.1870     1.4380 ca         1 O51      -0.065000
     13 C19         -3.1430     0.9380     1.3410 ca         1 O51      -0.202000
     14 C20          1.1850    -1.9660     0.5010 c6         1 O51      -0.070400
     15 C21          2.6550    -2.1800     0.8510 c6         1 O51      -0.106400
     16 C22          3.5190    -2.0790    -0.3990 c6         1 O51       0.092000
     17 F15         -5.6330    -0.2350    -1.6620 f          1 O51      -0.122900
     18 N01          8.3750     1.9250     0.6270 n8         1 O51      -0.885800
     19 N04          5.2460     0.1470    -0.2540 ns         1 O51      -0.581900
     20 N06          3.2960    -0.8180    -1.0820 n          1 O51      -0.482800
     21 N11         -1.2340     0.0720     0.2170 ns         1 O51      -0.471100
     22 O23          3.8340     1.3360    -1.5550 o          1 O51      -0.634100
     23 CL1         -7.0490     1.0810     0.5090 cl         1 O51      -0.077400
     24 H1           7.3410     0.3210     1.4360 h1         1 O51       0.029700
     25 H2           7.8720     0.0090    -0.2100 h1         1 O51       0.029700
     26 H3           5.7270     2.0170     0.6120 h1         1 O51       0.060700
     27 H4           6.2880     1.7610    -1.0350 h1         1 O51       0.060700
     28 H5           1.6770    -1.4770    -2.1960 h1         1 O51       0.082700
     29 H6           1.8260     0.2710    -2.0800 h1         1 O51       0.082700
     30 H7           1.2560     0.1770     0.3370 hc         1 O51       0.064700
     31 H8          -3.1080    -0.6110    -1.6870 ha         1 O51       0.187000
     32 H9          -4.8910     1.6900     2.3100 ha         1 O51       0.149000
     33 H10         -2.4920     1.2520     2.1470 ha         1 O51       0.136000
     34 H11          0.5820    -1.9370     1.4110 hc         1 O51       0.052700
     35 H12          0.8230    -2.8130    -0.0890 hc         1 O51       0.052700
     36 H13          2.9790    -1.4360     1.5830 hc         1 O51       0.049200
     37 H14          2.7870    -3.1620     1.3110 hc         1 O51       0.049200
     38 H15          4.5740    -2.2230    -0.1730 h1         1 O51       0.056700
     39 H16          3.2560    -2.8820    -1.0950 h1         1 O51       0.056700
     40 H17          9.2240     1.6230     1.0860 hn         1 O51       0.343300
     41 H18          8.6620     2.2670    -0.2820 hn         1 O51       0.343300
     42 H20          5.2890    -0.5590     0.4620 hn         1 O51       0.299500
     43 H21         -0.7520     0.4110     1.0360 hn         1 O51       0.320500
@<TRIPOS>BOND
     1     1     2 1   
     2     1    18 1   
     3     1    24 1   
     4     1    25 1   
     5     2    19 1   
     6     2    26 1   
     7     2    27 1   
     8     3    19 1   
     9     3    20 1   
    10     3    22 2   
    11     4     5 1   
    12     4    20 1   
    13     4    28 1   
    14     4    29 1   
    15     5     6 1   
    16     5    14 1   
    17     5    30 1   
    18     6     7 2   
    19     6    21 1   
    20     8     9 ar  
    21     8    13 ar  
    22     8    21 1   
    23     9    10 ar  
    24     9    31 1   
    25    10    11 ar  
    26    10    17 1   
    27    11    12 ar  
    28    11    23 1   
    29    12    13 ar  
    30    12    32 1   
    31    13    33 1   
    32    14    15 1   
    33    14    34 1   
    34    14    35 1   
    35    15    16 1   
    36    15    36 1   
    37    15    37 1   
    38    16    20 1   
    39    16    38 1   
    40    16    39 1   
    41    18    40 1   
    42    18    41 1   
    43    19    42 1   
    44    21    43 1   
@<TRIPOS>SUBSTRUCTURE
     1 O51         1 TEMP              0 ****  ****    0 ROOT
