@<TRIPOS>MOLECULE
O53
   37    39     1     0     0
SMALL
No Charge or Current Charge


@<TRIPOS>ATOM
      1 CAS          5.1760     1.8570    -0.0550 c3         1 O53      -0.085100
      2 CAR          4.5880     0.5600    -0.6550 c3         1 O53      -0.019400
      3 CAT          5.5460    -0.6380    -0.4750 c3         1 O53      -0.085100
      4 CAA          3.1990     0.2590    -0.0870 ca         1 O53      -0.057300
      5 CAD          2.0760     0.2360    -0.9380 ca         1 O53      -0.107500
      6 CAE          0.7970    -0.0400    -0.4260 ca         1 O53      -0.088500
      7 CAC          3.0180     0.0000     1.2870 ca         1 O53      -0.107500
      8 CAB          1.7400    -0.2760     1.8010 ca         1 O53      -0.088500
      9 CAF          0.6170    -0.3000     0.9500 ca         1 O53      -0.168300
     10 CAG         -0.7670    -0.6040     1.5300 c6         1 O53       0.459200
     11 NAI         -1.3620    -1.7450     0.8570 ns         1 O53      -0.508900
     12 CAH         -2.3170    -1.7170    -0.1210 c          1 O53       0.594600
     13 OAK         -2.6700    -2.7430    -0.6800 o          1 O53      -0.558000
     14 CAQ         -2.8920    -0.3940    -0.4440 ca         1 O53      -0.268600
     15 CAL         -3.8060    -0.1790    -1.4880 ca         1 O53       0.019000
     16 CAM         -4.2680     1.1340    -1.6780 ca         1 O53      -0.228000
     17 CAN         -3.8070     2.1540    -0.8270 ca         1 O53       0.402900
     18 NAO         -2.9310     1.9310     0.1780 nb         1 O53      -0.743000
     19 CAP         -2.5050     0.6800     0.3340 ca         1 O53       0.623900
     20 NAJ         -1.6520     0.5300     1.3720 nu         1 O53      -0.909100
     21 HAS1         4.4910     2.6980    -0.2140 hc         1 O53       0.036200
     22 HAS2         5.3480     1.7530     1.0230 hc         1 O53       0.036200
     23 HAS3         6.1330     2.1030    -0.5310 hc         1 O53       0.036200
     24 HAR          4.4980     0.7290    -1.7360 hc         1 O53       0.051700
     25 HAT1         5.7330    -0.8410     0.5870 hc         1 O53       0.036200
     26 HAT2         5.1200    -1.5410    -0.9280 hc         1 O53       0.036200
     27 HAT3         6.5100    -0.4380    -0.9580 hc         1 O53       0.036200
     28 HAD          2.1920     0.4320    -2.0010 ha         1 O53       0.116000
     29 HAC          3.8700     0.0130     1.9630 ha         1 O53       0.116000
     30 HAE         -0.0530    -0.0510    -1.1040 ha         1 O53       0.115500
     31 HAB          1.6250    -0.4720     2.8650 ha         1 O53       0.115500
     32 HAG         -0.6510    -0.8540     2.5980 h2         1 O53       0.075700
     33 HAI         -0.9790    -2.6550     1.0680 hn         1 O53       0.328500
     34 HAJ         -1.3500     1.4190     1.7510 hn         1 O53       0.498000
     35 HAL         -4.1440    -0.9920    -2.1290 ha         1 O53       0.138000
     36 HAM         -4.9740     1.3650    -2.4700 ha         1 O53       0.129000
     37 HAN         -4.1520     3.1800    -0.9540 h4         1 O53       0.018100
@<TRIPOS>BOND
     1     1     2 1   
     2     1    21 1   
     3     1    22 1   
     4     1    23 1   
     5     2     3 1   
     6     2     4 1   
     7     2    24 1   
     8     3    25 1   
     9     3    26 1   
    10     3    27 1   
    11     4     5 ar  
    12     4     7 ar  
    13     5     6 ar  
    14     5    28 1   
    15     6     9 ar  
    16     6    30 1   
    17     7     8 ar  
    18     7    29 1   
    19     8     9 ar  
    20     8    31 1   
    21     9    10 1   
    22    10    11 1   
    23    10    20 1   
    24    10    32 1   
    25    11    12 1   
    26    11    33 1   
    27    12    13 2   
    28    12    14 1   
    29    14    15 ar  
    30    14    19 ar  
    31    15    16 ar  
    32    15    35 1   
    33    16    17 ar  
    34    16    36 1   
    35    17    18 ar  
    36    17    37 1   
    37    18    19 ar  
    38    19    20 1   
    39    20    34 1   
@<TRIPOS>SUBSTRUCTURE
     1 O53         1 TEMP              0 ****  ****    0 ROOT
