@<TRIPOS>MOLECULE
O53
   37    39     1     0     0
SMALL
bcc


@<TRIPOS>ATOM
      1 CAS          4.6210     2.0160    -0.5860 c3         1 O53      -0.085100
      2 CAR          4.4070     0.5100    -0.7350 c3         1 O53      -0.019400
      3 CAT          5.5510    -0.2710    -0.0880 c3         1 O53      -0.085100
      4 CAA          3.0670     0.0910    -0.1760 ca         1 O53      -0.057300
      5 CAD          2.0860    -0.4560    -0.9940 ca         1 O53      -0.125500
      6 CAE          0.8510    -0.8430    -0.4850 ca         1 O53      -0.106500
      7 CAC          2.7770     0.2390     1.1810 ca         1 O53      -0.125500
      8 CAB          1.5480    -0.1430     1.6910 ca         1 O53      -0.106500
      9 CAF          0.5650    -0.6830     0.8640 ca         1 O53      -0.168300
     10 CAG         -0.7840    -1.0220     1.4790 c6         1 O53       0.459200
     11 NAI         -1.5440    -1.9840     0.7200 ns         1 O53      -0.575900
     12 CAH         -2.3570    -1.6660    -0.3120 c          1 O53       0.737100
     13 OAK         -2.8330    -2.5070    -1.0620 o          1 O53      -0.633500
     14 CAQ         -2.6620    -0.2280    -0.4300 ca         1 O53      -0.333900
     15 CAL         -3.3870     0.2820    -1.4930 ca         1 O53       0.001000
     16 CAM         -3.7140     1.6290    -1.5080 ca         1 O53      -0.311300
     17 CAN         -3.3100     2.4030    -0.4300 ca         1 O53       0.468200
     18 NAO         -2.6140     1.9420     0.6010 nb         1 O53      -0.743000
     19 CAP         -2.2840     0.6540     0.5990 ca         1 O53       0.689200
     20 NAJ         -1.6010     0.1610     1.6650 nu         1 O53      -0.853900
     21 HAS1         3.8230     2.5820    -1.0690 hc         1 O53       0.036200
     22 HAS2         4.6510     2.3120     0.4650 hc         1 O53       0.036200
     23 HAS3         5.5670     2.3160    -1.0400 hc         1 O53       0.036200
     24 HAR          4.4050     0.2760    -1.8040 hc         1 O53       0.051700
     25 HAT1         5.6110    -0.0760     0.9840 hc         1 O53       0.036200
     26 HAT2         5.4260    -1.3460    -0.2260 hc         1 O53       0.036200
     27 HAT3         6.5070     0.0150    -0.5290 hc         1 O53       0.036200
     28 HAD          2.2860    -0.5930    -2.0500 ha         1 O53       0.134000
     29 HAC          3.5200     0.6520     1.8530 ha         1 O53       0.134000
     30 HAE          0.1270    -1.2820    -1.1590 ha         1 O53       0.133500
     31 HAB          1.3530    -0.0220     2.7520 ha         1 O53       0.133500
     32 HAG         -0.6100    -1.4500     2.4670 h2         1 O53       0.075700
     33 HAI         -1.2810    -2.9540     0.8210 hn         1 O53       0.328500
     34 HAJ         -1.2410     0.8460     2.3130 hn         1 O53       0.442800
     35 HAL         -3.6990    -0.3730    -2.2960 ha         1 O53       0.156000
     36 HAM         -4.2720     2.0680    -2.3220 ha         1 O53       0.147000
     37 HAN         -3.5620     3.4570    -0.3970 h4         1 O53       0.018100
@<TRIPOS>BOND
     1     1     2 1   
     2     1    21 1   
     3     1    22 1   
     4     1    23 1   
     5     2     3 1   
     6     2     4 1   
     7     2    24 1   
     8     3    25 1   
     9     3    26 1   
    10     3    27 1   
    11     4     5 ar  
    12     4     7 ar  
    13     5     6 ar  
    14     5    28 1   
    15     6     9 ar  
    16     6    30 1   
    17     7     8 ar  
    18     7    29 1   
    19     8     9 ar  
    20     8    31 1   
    21     9    10 1   
    22    10    11 1   
    23    10    20 1   
    24    10    32 1   
    25    11    12 1   
    26    11    33 1   
    27    12    13 2   
    28    12    14 1   
    29    14    15 ar  
    30    14    19 ar  
    31    15    16 ar  
    32    15    35 1   
    33    16    17 ar  
    34    16    36 1   
    35    17    18 ar  
    36    17    37 1   
    37    18    19 ar  
    38    19    20 1   
    39    20    34 1   
@<TRIPOS>SUBSTRUCTURE
     1 O53         1 TEMP              0 ****  ****    0 ROOT
