@<TRIPOS>MOLECULE
O54
   44    46     1     0     0
SMALL
bcc


@<TRIPOS>ATOM
      1 O1           3.9990    -0.3800    -1.2190 o          1 O54      -0.590100
      2 C2           3.7740     0.4110    -0.3230 c          1 O54       0.793100
      3 N4           4.6320     1.3890     0.0510 ns         1 O54      -0.590900
      4 C6           5.9330     1.5470    -0.5640 c3         1 O54       0.112000
      5 C9           6.5070     2.9120    -0.2380 c3         1 O54      -0.110100
      6 N3           2.5920     0.4260     0.4000 ns         1 O54      -0.581400
      7 C5           1.5820    -0.5230     0.2670 ca         1 O54       0.556200
      8 C8           0.2680    -0.1260     0.2310 ca         1 O54      -0.294300
      9 C11         -0.7530    -1.0940     0.1880 ca         1 O54       0.037000
     10 C13         -2.1410    -0.7690     0.1590 cp         1 O54      -0.057000
     11 C16         -3.0460    -1.7920     0.0390 ca         1 O54      -0.082000
     12 C17         -2.6470    -3.1390    -0.0270 ca         1 O54      -0.147000
     13 C14         -1.3250    -3.4950     0.0210 ca         1 O54      -0.025300
     14 C18         -0.9110    -4.9330    -0.0350 c3         1 O54      -0.055800
     15 C12         -0.3600    -2.4550     0.1230 ca         1 O54      -0.186300
     16 C10          1.0270    -2.7210     0.1540 ca         1 O54       0.457200
     17 N7           1.9580    -1.8120     0.2420 nb         1 O54      -0.663000
     18 C15         -2.6190     0.6240     0.2510 cp         1 O54       0.011000
     19 C20         -2.2690     1.4560     1.3110 ca         1 O54      -0.248300
     20 C22         -2.7840     2.7410     1.3430 ca         1 O54       0.404200
     21 N23         -3.5980     3.2340     0.4190 nb         1 O54      -0.673000
     22 C21         -3.9460     2.4480    -0.5960 ca         1 O54       0.421600
     23 C24         -4.8490     3.0410    -1.6340 c3         1 O54      -0.145400
     24 C19         -3.4780     1.1430    -0.7110 ca         1 O54      -0.238300
     25 H1           4.5060     1.8150     0.9550 hn         1 O54       0.305500
     26 H2           6.6220     0.7630    -0.2340 h1         1 O54       0.052200
     27 H3           5.8230     1.4390    -1.6430 h1         1 O54       0.052200
     28 H4           7.4820     3.0310    -0.7070 hc         1 O54       0.041367
     29 H5           5.8580     3.7100    -0.5990 hc         1 O54       0.041367
     30 H6           6.6450     3.0450     0.8360 hc         1 O54       0.041367
     31 H7           2.3110     1.3060     0.8010 hn         1 O54       0.315500
     32 H8           0.0250     0.9280     0.2180 ha         1 O54       0.146000
     33 H9          -4.1050    -1.5670     0.0190 ha         1 O54       0.135000
     34 H10         -3.4100    -3.9010    -0.1070 ha         1 O54       0.135000
     35 H11         -0.3860    -5.2380     0.8720 hc         1 O54       0.048367
     36 H12         -1.7770    -5.5820    -0.1450 hc         1 O54       0.048367
     37 H13         -0.2430    -5.1300    -0.8750 hc         1 O54       0.048367
     38 H14          1.3740    -3.7480     0.1180 h4         1 O54       0.023100
     39 H15         -1.6300     1.1110     2.1120 ha         1 O54       0.145000
     40 H16         -2.5270     3.4030     2.1620 h4         1 O54       0.017100
     41 H17         -4.2820     3.6760    -2.3170 hc         1 O54       0.051367
     42 H18         -5.3420     2.2740    -2.2310 hc         1 O54       0.051367
     43 H19         -5.6130     3.6630    -1.1710 hc         1 O54       0.051367
     44 H20         -3.7770     0.5370    -1.5570 ha         1 O54       0.144000
@<TRIPOS>BOND
     1     1     2 2   
     2     2     3 1   
     3     2     6 1   
     4     3     4 1   
     5     3    25 1   
     6     4     5 1   
     7     4    26 1   
     8     4    27 1   
     9     5    28 1   
    10     5    29 1   
    11     5    30 1   
    12     6     7 1   
    13     6    31 1   
    14     7     8 ar  
    15     7    17 ar  
    16     8     9 ar  
    17     8    32 1   
    18     9    10 ar  
    19     9    15 ar  
    20    10    11 ar  
    21    10    18 1   
    22    11    12 ar  
    23    11    33 1   
    24    12    13 ar  
    25    12    34 1   
    26    13    14 1   
    27    13    15 ar  
    28    14    35 1   
    29    14    36 1   
    30    14    37 1   
    31    15    16 ar  
    32    16    17 ar  
    33    16    38 1   
    34    18    19 ar  
    35    18    24 ar  
    36    19    20 ar  
    37    19    39 1   
    38    20    21 ar  
    39    20    40 1   
    40    21    22 ar  
    41    22    23 1   
    42    22    24 ar  
    43    23    41 1   
    44    23    42 1   
    45    23    43 1   
    46    24    44 1   
@<TRIPOS>SUBSTRUCTURE
     1 O54         1 TEMP              0 ****  ****    0 ROOT
