@<TRIPOS>MOLECULE
O54
   44    46     1     0     0
SMALL
No Charge or Current Charge


@<TRIPOS>ATOM
      1 O1           4.3020    -0.5500    -1.1860 o          1 O54      -0.590100
      2 C2           3.8810     0.3230    -0.4420 c          1 O54       0.659100
      3 N4           4.6200     1.4280    -0.1040 ns         1 O54      -0.523900
      4 C6           5.9800     1.6820    -0.5760 c3         1 O54       0.112000
      5 C9           6.5340     3.0010    -0.0140 c3         1 O54      -0.110100
      6 N3           2.6360     0.3440     0.1310 ns         1 O54      -0.347900
      7 C5           1.6010    -0.5980     0.0770 ca         1 O54       0.490900
      8 C8           0.2640    -0.1890     0.1260 ca         1 O54      -0.211000
      9 C11         -0.7620    -1.1550     0.1400 ca         1 O54       0.037000
     10 C13         -2.1390    -0.7930     0.1710 cp         1 O54      -0.057000
     11 C16         -3.1010    -1.8260     0.1320 ca         1 O54      -0.064000
     12 C17         -2.7190    -3.1750     0.0870 ca         1 O54      -0.129000
     13 C14         -1.3600    -3.5350     0.0790 ca         1 O54      -0.025300
     14 C18         -0.9890    -5.0150     0.0370 c3         1 O54      -0.055800
     15 C12         -0.3760    -2.5160     0.1010 ca         1 O54      -0.121000
     16 C10          1.0060    -2.8220     0.0860 ca         1 O54       0.391900
     17 N7           1.9790    -1.8870     0.0880 nb         1 O54      -0.663000
     18 C15         -2.6080     0.6230     0.2480 cp         1 O54       0.011000
     19 C20         -2.2380     1.4800     1.3070 ca         1 O54      -0.165000
     20 C22         -2.7240     2.7960     1.3460 ca         1 O54       0.338900
     21 N23         -3.5550     3.3010     0.4050 nb         1 O54      -0.673000
     22 C21         -3.9310     2.4880    -0.6070 ca         1 O54       0.356300
     23 C24         -4.8640     3.0910    -1.6400 c3         1 O54      -0.145400
     24 C19         -3.4870     1.1580    -0.7190 ca         1 O54      -0.155000
     25 H1           4.1880     2.1000     0.5160 hn         1 O54       0.305500
     26 H2           6.6270     0.8500    -0.2660 h1         1 O54       0.052200
     27 H3           5.9750     1.7240    -1.6740 h1         1 O54       0.052200
     28 H4           7.5540     3.1710    -0.3810 hc         1 O54       0.041367
     29 H5           5.9110     3.8470    -0.3260 hc         1 O54       0.041367
     30 H6           6.5630     2.9730     1.0820 hc         1 O54       0.041367
     31 H7           2.4150     1.1700     0.6680 hn         1 O54       0.149000
     32 H8           0.0440     0.8730     0.1320 ha         1 O54       0.128000
     33 H9          -4.1590    -1.5750     0.1500 ha         1 O54       0.117000
     34 H10         -3.4890    -3.9430     0.0660 ha         1 O54       0.117000
     35 H11         -0.3990    -5.3000     0.9160 hc         1 O54       0.048367
     36 H12         -1.8780    -5.6580     0.0200 hc         1 O54       0.048367
     37 H13         -0.4020    -5.2510    -0.8590 hc         1 O54       0.048367
     38 H14          1.3580    -3.8520     0.0720 h4         1 O54       0.023100
     39 H15         -1.5830     1.1270     2.0980 ha         1 O54       0.127000
     40 H16         -2.4430     3.4680     2.1560 h4         1 O54       0.017100
     41 H17         -4.2970     3.6430    -2.3980 hc         1 O54       0.051367
     42 H18         -5.4440     2.3150    -2.1530 hc         1 O54       0.051367
     43 H19         -5.5770     3.7850    -1.1790 hc         1 O54       0.051367
     44 H20         -3.8160     0.5460    -1.5540 ha         1 O54       0.126000
@<TRIPOS>BOND
     1     1     2 2   
     2     2     3 1   
     3     2     6 1   
     4     3     4 1   
     5     3    25 1   
     6     4     5 1   
     7     4    26 1   
     8     4    27 1   
     9     5    28 1   
    10     5    29 1   
    11     5    30 1   
    12     6     7 1   
    13     6    31 1   
    14     7     8 ar  
    15     7    17 ar  
    16     8     9 ar  
    17     8    32 1   
    18     9    10 ar  
    19     9    15 ar  
    20    10    11 ar  
    21    10    18 1   
    22    11    12 ar  
    23    11    33 1   
    24    12    13 ar  
    25    12    34 1   
    26    13    14 1   
    27    13    15 ar  
    28    14    35 1   
    29    14    36 1   
    30    14    37 1   
    31    15    16 ar  
    32    16    17 ar  
    33    16    38 1   
    34    18    19 ar  
    35    18    24 ar  
    36    19    20 ar  
    37    19    39 1   
    38    20    21 ar  
    39    20    40 1   
    40    21    22 ar  
    41    22    23 1   
    42    22    24 ar  
    43    23    41 1   
    44    23    42 1   
    45    23    43 1   
    46    24    44 1   
@<TRIPOS>SUBSTRUCTURE
     1 O54         1 TEMP              0 ****  ****    0 ROOT
