@<TRIPOS>MOLECULE
O55
   45    46     1     0     0
SMALL
bcc


@<TRIPOS>ATOM
      1 C10         29.1770    33.2780    55.8370 ca         1 O55       0.009000
      2 C12         31.8400    36.6530    53.4980 c          1 O55       0.795100
      3 C16         34.1180    35.9980    50.6080 c3         1 O55       0.151800
      4 C15         33.2800    35.5220    51.7830 c3         1 O55       0.099000
      5 C18         35.7750    37.6800    49.9870 c3         1 O55       0.220100
      6 C19         36.6840    36.8700    49.0780 ca         1 O55      -0.205300
      7 C05         28.6490    34.1820    56.7550 ca         1 O55      -0.321500
      8 C06         29.0020    35.5200    56.6950 ca         1 O55       0.009000
      9 C07         29.8800    35.9730    55.7230 ca         1 O55      -0.206000
     10 C08         30.4180    35.0780    54.7940 ca         1 O55       0.150600
     11 C09         30.0460    33.7250    54.8690 ca         1 O55      -0.206000
     12 C20         37.0610    37.3590    47.8210 ca         1 O55       0.153100
     13 C22         37.9050    36.6250    46.9910 ca         1 O55      -0.136000
     14 C23         38.3850    35.4020    47.4260 ca         1 O55       0.018100
     15 C25         38.0480    34.8940    48.6690 ca         1 O55      -0.137000
     16 C26         37.2020    35.6430    49.4730 ca         1 O55      -0.094000
     17 N01         26.2900    33.0600    57.1380 n8         1 O55      -0.893700
     18 N11         31.3070    35.4160    53.7910 ns         1 O55      -0.487100
     19 N14         32.6930    36.6660    52.4480 ns         1 O55      -0.578900
     20 N17         35.1020    36.9690    51.0460 n7         1 O55      -0.835200
     21 O03         28.1500    32.4100    58.6420 o          1 O55      -0.618800
     22 O04         27.2460    34.7240    58.8870 o          1 O55      -0.618800
     23 O13         31.5550    37.6670    54.1190 o          1 O55      -0.614100
     24 O21         36.6460    38.5470    47.3350 oh         1 O55      -0.494100
     25 S02         27.5780    33.5980    58.0230 sy         1 O55       1.276200
     26 BR1         39.5290    34.4120    46.2940 br         1 O55      -0.087100
     27 H1          28.9100    32.2300    55.8670 ha         1 O55       0.154500
     28 H2          33.4680    36.4890    49.8800 h1         1 O55       0.050200
     29 H3          34.5400    35.1150    50.1120 h1         1 O55       0.050200
     30 H4          32.5060    34.8600    51.3880 h1         1 O55       0.038700
     31 H5          33.9010    34.9340    52.4680 h1         1 O55       0.038700
     32 H6          36.3560    38.4920    50.4360 h1         1 O55       0.059200
     33 H7          34.9900    38.1620    49.3920 h1         1 O55       0.059200
     34 H8          28.5980    36.2300    57.4030 ha         1 O55       0.154500
     35 H9          30.1400    37.0170    55.7000 ha         1 O55       0.152500
     36 H10         30.4510    33.0170    54.1560 ha         1 O55       0.152500
     37 H11         38.1730    37.0260    46.0220 ha         1 O55       0.166000
     38 H12         38.4250    33.9410    49.0140 ha         1 O55       0.152000
     39 H13         36.9420    35.2410    50.4450 ha         1 O55       0.125000
     40 H14         25.6910    32.4520    57.6880 hn         1 O55       0.415800
     41 H15         25.7460    33.8190    56.7380 hn         1 O55       0.415800
     42 H16         31.5930    34.6400    53.2130 hn         1 O55       0.317500
     43 H17         33.2130    37.5260    52.3380 hn         1 O55       0.348500
     44 H18         35.7610    36.5610    51.6970 hn         1 O55       0.371800
     45 H20         36.0920    39.0210    47.9630 ho         1 O55       0.431000
@<TRIPOS>BOND
     1     1     7 ar  
     2     1    11 ar  
     3     1    27 1   
     4     2    18 1   
     5     2    19 1   
     6     2    23 2   
     7     3     4 1   
     8     3    20 1   
     9     3    28 1   
    10     3    29 1   
    11     4    19 1   
    12     4    30 1   
    13     4    31 1   
    14     5     6 1   
    15     5    20 1   
    16     5    32 1   
    17     5    33 1   
    18     6    12 ar  
    19     6    16 ar  
    20     7     8 ar  
    21     7    25 1   
    22     8     9 ar  
    23     8    34 1   
    24     9    10 ar  
    25     9    35 1   
    26    10    11 ar  
    27    10    18 1   
    28    11    36 1   
    29    12    13 ar  
    30    12    24 1   
    31    13    14 ar  
    32    13    37 1   
    33    14    15 ar  
    34    14    26 1   
    35    15    16 ar  
    36    15    38 1   
    37    16    39 1   
    38    17    25 1   
    39    17    40 1   
    40    17    41 1   
    41    18    42 1   
    42    19    43 1   
    43    20    44 1   
    44    21    25 2   
    45    22    25 2   
    46    24    45 1   
@<TRIPOS>SUBSTRUCTURE
     1 O55         1 TEMP              0 ****  ****    0 ROOT
