@<TRIPOS>MOLECULE
O55
   45    46     1     0     0
SMALL
No Charge or Current Charge


@<TRIPOS>ATOM
      1 C10         29.2320    33.0860    55.5310 ca         1 O55       0.027000
      2 C12         32.0290    36.8360    53.7730 c          1 O55       0.661100
      3 C16         34.0910    36.5070    50.5800 c3         1 O55       0.151800
      4 C15         33.3170    35.9180    51.7830 c3         1 O55       0.099000
      5 C18         36.0260    38.0060    49.9870 c3         1 O55       0.220100
      6 C19         36.7670    36.9640    49.1530 ca         1 O55      -0.205300
      7 C05         28.6470    33.8390    56.5670 ca         1 O55      -0.321500
      8 C06         28.9970    35.1930    56.7300 ca         1 O55       0.027000
      9 C07         29.9250    35.7890    55.8590 ca         1 O55      -0.188000
     10 C08         30.5170    35.0420    54.8180 ca         1 O55       0.058000
     11 C09         30.1590    33.6910    54.6660 ca         1 O55      -0.188000
     12 C20         36.3270    36.5580    47.8700 ca         1 O55       0.153100
     13 C22         37.0540    35.6010    47.1430 ca         1 O55      -0.118000
     14 C23         38.2210    35.0400    47.6830 ca         1 O55       0.018100
     15 C25         38.6670    35.4350    48.9520 ca         1 O55      -0.119000
     16 C26         37.9440    36.3930    49.6830 ca         1 O55      -0.076000
     17 N01         26.0710    33.2730    56.8430 n8         1 O55      -1.004100
     18 N11         31.4610    35.5770    53.9020 ns         1 O55      -0.161000
     19 N14         32.9190    36.9620    52.7350 ns         1 O55      -0.511900
     20 N17         35.2230    37.3540    51.0370 n7         1 O55      -0.890400
     21 O03         27.6730    31.6230    57.7230 o          1 O55      -0.548000
     22 O04         27.2850    33.8940    58.8640 o          1 O55      -0.548000
     23 O13         31.7960    37.7920    54.4950 o          1 O55      -0.614100
     24 O21         35.1940    37.0730    47.3100 oh         1 O55      -0.533100
     25 S02         27.4650    33.0700    57.6700 sy         1 O55       1.134600
     26 Br1         39.2050    33.7370    46.6870 br         1 O55      -0.087100
     27 H1          28.9710    32.0380    55.3910 ha         1 O55       0.136500
     28 H2          33.3910    37.1020    49.9770 h1         1 O55       0.050200
     29 H3          34.4450    35.6760    49.9540 h1         1 O55       0.050200
     30 H4          32.4230    35.3990    51.4110 h1         1 O55       0.038700
     31 H5          33.9510    35.1890    52.3050 h1         1 O55       0.038700
     32 H6          36.7700    38.6700    50.4490 h1         1 O55       0.059200
     33 H7          35.3990    38.6470    49.3520 h1         1 O55       0.059200
     34 H8          28.5560    35.7900    57.5270 ha         1 O55       0.136500
     35 H9          30.1710    36.8340    56.0140 ha         1 O55       0.134500
     36 H10         30.6030    33.0980    53.8700 ha         1 O55       0.134500
     37 H11         36.7100    35.2940    46.1600 ha         1 O55       0.148000
     38 H12         39.5730    35.0020    49.3710 ha         1 O55       0.134000
     39 H13         38.3020    36.6940    50.6660 ha         1 O55       0.107000
     40 H14         25.4960    33.7290    57.5470 hn         1 O55       0.471000
     41 H15         26.3130    34.0240    56.2010 hn         1 O55       0.471000
     42 H16         31.7800    34.9110    53.2140 hn         1 O55       0.151000
     43 H17         33.3700    37.8650    52.6460 hn         1 O55       0.348500
     44 H18         35.8600    36.7650    51.5880 hn         1 O55       0.427000
     45 H20         34.7660    37.6620    47.9630 ho         1 O55       0.470000
@<TRIPOS>BOND
     1     1     7 ar  
     2     1    11 ar  
     3     1    27 1   
     4     2    18 1   
     5     2    19 1   
     6     2    23 2   
     7     3     4 1   
     8     3    20 1   
     9     3    28 1   
    10     3    29 1   
    11     4    19 1   
    12     4    30 1   
    13     4    31 1   
    14     5     6 1   
    15     5    20 1   
    16     5    32 1   
    17     5    33 1   
    18     6    12 ar  
    19     6    16 ar  
    20     7     8 ar  
    21     7    25 1   
    22     8     9 ar  
    23     8    34 1   
    24     9    10 ar  
    25     9    35 1   
    26    10    11 ar  
    27    10    18 1   
    28    11    36 1   
    29    12    13 ar  
    30    12    24 1   
    31    13    14 ar  
    32    13    37 1   
    33    14    15 ar  
    34    14    26 1   
    35    15    16 ar  
    36    15    38 1   
    37    16    39 1   
    38    17    25 1   
    39    17    40 1   
    40    17    41 1   
    41    18    42 1   
    42    19    43 1   
    43    20    44 1   
    44    21    25 2   
    45    22    25 2   
    46    24    45 1   
@<TRIPOS>SUBSTRUCTURE
     1 O55         1 TEMP              0 ****  ****    0 ROOT
