@<TRIPOS>MOLECULE
O57
   39    42     1     0     0
SMALL
No Charge or Current Charge


@<TRIPOS>ATOM
      1 CAC          4.3210    -2.7030     1.4360 ca         1 O57      -0.103000
      2 CAD          3.9340    -3.2470     0.1990 ca         1 O57      -0.116000
      3 CAE          3.9680    -1.3830     1.7610 ca         1 O57      -0.116000
      4 CAF         -0.0560     4.3650    -0.5860 ca         1 O57      -0.095000
      5 CAG          0.6100     3.8280    -1.6970 ca         1 O57      -0.113000
      6 CAH          3.1960    -2.4720    -0.7120 ca         1 O57      -0.086500
      7 CAI          3.2300    -0.6070     0.8500 ca         1 O57      -0.086500
      8 CAJ         -4.0470    -0.1190     1.4340 ca         1 O57      -0.107000
      9 CAK         -0.4720     3.5140     0.4490 ca         1 O57      -0.143000
     10 CAL          0.8900     2.4510    -1.7540 ca         1 O57      -0.108000
     11 CAM         -2.9360     0.6870     1.7300 ca         1 O57      -0.143000
     12 CAN         -2.7140    -1.3150    -0.2100 ca         1 O57      -0.080000
     13 CAQ         -3.9290    -1.1200     0.4630 ca         1 O57       0.141000
     14 CAR          2.8390    -1.1470    -0.3910 ca         1 O57      -0.114300
     15 CAS         -0.2890    -0.8040    -0.6580 c          1 O57       0.599600
     16 CAT         -1.7160     0.5000     1.0550 ca         1 O57       0.279000
     17 CAU         -0.1980     2.1380     0.3880 ca         1 O57       0.246000
     18 CAV         -1.5870    -0.4980     0.0650 ca         1 O57      -0.137600
     19 CAW          0.5570     1.5960    -0.6770 ca         1 O57       0.051600
     20 FAB         -4.9900    -1.9060     0.1760 f          1 O57      -0.175000
     21 NAP         -0.6710     1.3240     1.3950 na         1 O57      -0.922000
     22 NAX          0.7400     0.1680    -0.8190 n          1 O57      -0.311000
     23 H1           4.8920    -3.3040     2.1400 ha         1 O57       0.110000
     24 H2           4.2060    -4.2700    -0.0530 ha         1 O57       0.111500
     25 H3           4.2660    -0.9600     2.7180 ha         1 O57       0.111500
     26 H4          -0.2770     5.4290    -0.5420 ha         1 O57       0.118000
     27 H5           0.8990     4.4760    -2.5220 ha         1 O57       0.120000
     28 H6           2.8980    -2.9040    -1.6650 ha         1 O57       0.118000
     29 H7           2.9580     0.4150     1.1100 ha         1 O57       0.118000
     30 H8          -4.9890     0.0280     1.9550 ha         1 O57       0.134000
     31 H9          -1.0270     3.9190     1.2910 ha         1 O57       0.115000
     32 H10          1.3690     2.0550    -2.6460 ha         1 O57       0.124000
     33 H11         -3.0220     1.4630     2.4850 ha         1 O57       0.119000
     34 H12         -2.6540    -2.1060    -0.9540 ha         1 O57       0.150000
     35 H13          2.6630     0.5610    -1.6420 h1         1 O57       0.067200
     36 H14          1.8560    -0.8600    -2.3000 h1         1 O57       0.067200
     37 H15         -0.3920     1.4580     2.3630 hn         1 O57       0.457000
     38 CAO          2.0380    -0.2990    -1.3740 c3         1 O57       0.150300
     39 OAA         -0.1220    -1.9400    -1.0930 o          1 O57      -0.549000
@<TRIPOS>BOND
     1     1     2 ar  
     2     1     3 ar  
     3     1    23 1   
     4     2     6 ar  
     5     2    24 1   
     6     3     7 ar  
     7     3    25 1   
     8     4     5 ar  
     9     4     9 ar  
    10     4    26 1   
    11     5    10 ar  
    12     5    27 1   
    13     6    14 ar  
    14     6    28 1   
    15     7    14 ar  
    16     7    29 1   
    17     8    11 ar  
    18     8    13 ar  
    19     8    30 1   
    20     9    17 ar  
    21     9    31 1   
    22    10    19 ar  
    23    10    32 1   
    24    11    16 ar  
    25    11    33 1   
    26    12    13 ar  
    27    12    18 ar  
    28    12    34 1   
    29    13    20 1   
    30    14    38 1   
    31    15    18 1   
    32    15    22 1   
    33    15    39 2   
    34    16    18 ar  
    35    16    21 1   
    36    17    19 ar  
    37    17    21 1   
    38    19    22 1   
    39    21    37 1   
    40    22    38 1   
    41    35    38 1   
    42    36    38 1   
@<TRIPOS>SUBSTRUCTURE
     1 O57         1 TEMP              0 ****  ****    0 ROOT
