@<TRIPOS>MOLECULE
O57
   39    42     1     0     0
SMALL
abcg2


@<TRIPOS>ATOM
      1 CAC          4.1780    -1.7630     1.6890 ca         1 O57      -0.103000
      2 CAD          3.4790    -2.7160     0.9600 ca         1 O57      -0.116000
      3 CAE          4.1140    -0.4260     1.3160 ca         1 O57      -0.116000
      4 CAF          0.6930     3.9450     0.0360 ca         1 O57      -0.095000
      5 CAG          1.0000     3.5960    -1.2730 ca         1 O57      -0.113000
      6 CAH          2.7130    -2.3310    -0.1330 ca         1 O57      -0.086500
      7 CAI          3.3510    -0.0450     0.2220 ca         1 O57      -0.086500
      8 CAJ         -4.0350    -0.2800     1.2970 ca         1 O57      -0.107000
      9 CAK          0.2080     2.9860     0.9080 ca         1 O57      -0.143000
     10 CAL          0.8640     2.2790    -1.6800 ca         1 O57      -0.108000
     11 CAM         -2.8300     0.2470     1.7230 ca         1 O57      -0.143000
     12 CAN         -2.9630    -1.0860    -0.7050 ca         1 O57      -0.080000
     13 CAQ         -4.0850    -0.9210     0.0730 ca         1 O57       0.141000
     14 CAR          2.6400    -0.9940    -0.5110 ca         1 O57      -0.114300
     15 CAS         -0.5190    -0.9620    -1.0170 c          1 O57       0.599600
     16 CAT         -1.6810     0.1300     0.9410 ca         1 O57       0.279000
     17 CAU          0.0700     1.6610     0.5030 ca         1 O57       0.246000
     18 CAV         -1.7480    -0.5560    -0.2720 ca         1 O57      -0.137600
     19 CAW          0.4350     1.2960    -0.7920 ca         1 O57       0.051600
     20 FAB         -5.2580    -1.4150    -0.3570 f          1 O57      -0.175000
     21 NAP         -0.4690     0.6940     1.3640 na         1 O57      -0.922000
     22 NAX          0.4810    -0.0630    -1.1910 n          1 O57      -0.311000
     23 H1           4.7740    -2.0620     2.5420 ha         1 O57       0.110000
     24 H2           3.5290    -3.7600     1.2410 ha         1 O57       0.111500
     25 H3           4.6630     0.3190     1.8770 ha         1 O57       0.111500
     26 H4           0.8030     4.9690     0.3690 ha         1 O57       0.118000
     27 H5           1.3460     4.3430    -1.9740 ha         1 O57       0.120000
     28 H6           2.1670    -3.0780    -0.6970 ha         1 O57       0.118000
     29 H7           3.3130     0.9990    -0.0680 ha         1 O57       0.118000
     30 H8          -4.9260    -0.1770     1.9030 ha         1 O57       0.134000
     31 H9          -0.0760     3.2610     1.9170 ha         1 O57       0.115000
     32 H10          1.1130     2.0070    -2.6980 ha         1 O57       0.124000
     33 H11         -2.7810     0.7680     2.6710 ha         1 O57       0.119000
     34 H12         -3.0210    -1.6350    -1.6350 ha         1 O57       0.150000
     35 H13          2.2680     0.2230    -2.2350 h1         1 O57       0.067200
     36 H14          1.6050    -1.3870    -2.3580 h1         1 O57       0.067200
     37 H15         -0.5100     1.0130     2.3220 hn         1 O57       0.457000
     38 CAO          1.7770    -0.5660    -1.6680 c3         1 O57       0.150300
     39 OAA         -0.4410    -2.1040    -1.4390 o          1 O57      -0.549000
@<TRIPOS>BOND
     1     1     2 ar  
     2     1     3 ar  
     3     1    23 1   
     4     2     6 ar  
     5     2    24 1   
     6     3     7 ar  
     7     3    25 1   
     8     4     5 ar  
     9     4     9 ar  
    10     4    26 1   
    11     5    10 ar  
    12     5    27 1   
    13     6    14 ar  
    14     6    28 1   
    15     7    14 ar  
    16     7    29 1   
    17     8    11 ar  
    18     8    13 ar  
    19     8    30 1   
    20     9    17 ar  
    21     9    31 1   
    22    10    19 ar  
    23    10    32 1   
    24    11    16 ar  
    25    11    33 1   
    26    12    13 ar  
    27    12    18 ar  
    28    12    34 1   
    29    13    20 1   
    30    14    38 1   
    31    15    18 1   
    32    15    22 1   
    33    15    39 2   
    34    16    18 ar  
    35    16    21 1   
    36    17    19 ar  
    37    17    21 1   
    38    19    22 1   
    39    21    37 1   
    40    22    38 1   
    41    35    38 1   
    42    36    38 1   
@<TRIPOS>SUBSTRUCTURE
     1 O57         1 TEMP              0 ****  ****    0 ROOT
