@<TRIPOS>MOLECULE
O58
   62    65     1     0     0
SMALL
bcc


@<TRIPOS>ATOM
      1 C1           6.3500     1.5780     1.1430 ca         1 O58      -0.100000
      2 C2           6.7820     2.6320     0.3590 ca         1 O58      -0.122000
      3 C3           6.1840     2.8260    -0.8760 ca         1 O58       0.043400
      4 C4           5.1700     1.9970    -1.3280 ca         1 O58      -0.118000
      5 C5           4.7220     0.9390    -0.5460 ca         1 O58      -0.033300
      6 C6           5.3340     0.7510     0.6910 ca         1 O58      -0.016200
      7 N7           4.9140    -0.3190     1.5280 na         1 O58       0.005500
      8 C8           4.0990    -0.3070     2.5860 cc         1 O58       0.390400
      9 N9           4.0070    -1.5280     3.0410 nd         1 O58      -0.381000
     10 N10          4.7790    -2.2730     2.2470 nd         1 O58      -0.052000
     11 N11          5.3270    -1.5690     1.3400 nc         1 O58      -0.191800
     12 CL12         6.7120     4.1320    -1.8780 cl         1 O58      -0.093400
     13 C13          3.5770     0.0930    -1.0240 c3         1 O58      -0.033100
     14 C14          2.2460     0.6570    -0.5250 c3         1 O58      -0.157400
     15 C15          1.0630    -0.1370    -1.0370 c          1 O58       0.677100
     16 N16          0.0510    -0.2520    -0.1570 ns         1 O58      -0.554900
     17 O17          1.0350    -0.6030    -2.1640 o          1 O58      -0.603100
     18 C18         -1.1540    -0.9920    -0.4080 c3         1 O58       0.024700
     19 C19         -2.3580    -0.1550     0.0200 c          1 O58       0.657100
     20 O20         -2.2820     0.6270     0.9510 o          1 O58      -0.600100
     21 N21         -3.4750    -0.4080    -0.6920 ns         1 O58      -0.450100
     22 C22         -4.7700     0.1110    -0.5350 ca         1 O58       0.010600
     23 C23         -5.7640    -0.4210    -1.3530 ca         1 O58      -0.161500
     24 C24         -7.0650     0.0510    -1.2830 ca         1 O58      -0.109000
     25 C25         -7.4260     1.0620    -0.3970 ca         1 O58       0.000700
     26 C26         -6.4220     1.5790     0.4160 ca         1 O58      -0.109000
     27 C27         -5.1120     1.1270     0.3590 ca         1 O58      -0.161500
     28 C28         -1.1580    -2.3280     0.3640 c3         1 O58      -0.047100
     29 C29          0.0050    -3.1900    -0.0330 ca         1 O58      -0.078300
     30 C30          1.2140    -3.1280     0.6550 ca         1 O58      -0.120500
     31 C31          2.3000    -3.8940     0.2500 ca         1 O58      -0.128000
     32 C32          2.1890    -4.7330    -0.8500 ca         1 O58      -0.129000
     33 C33          0.9870    -4.8030    -1.5430 ca         1 O58      -0.128000
     34 C34         -0.0940    -4.0350    -1.1360 ca         1 O58      -0.120500
     35 C35         -8.8310     1.5650    -0.3190 c3         1 O58      -0.191100
     36 C36         -9.6350     1.0840     0.9160 c          1 O58       0.935600
     37 O37        -10.8530     1.3530     0.8880 o          1 O58      -0.829800
     38 O38         -9.0180     0.4980     1.8210 o          1 O58      -0.829800
     39 H1           6.8050     1.3990     2.1080 ha         1 O58       0.152000
     40 H2           7.5740     3.2820     0.7040 ha         1 O58       0.156000
     41 H4           4.7190     2.1710    -2.2960 ha         1 O58       0.162000
     42 H8           3.6150     0.5750     2.9740 h5         1 O58       0.080100
     43 H13          3.5780     0.0770    -2.1130 hc         1 O58       0.079700
     44 H13A         3.6890    -0.9430    -0.6990 hc         1 O58       0.079700
     45 H14          2.2320     0.7080     0.5660 hc         1 O58       0.057700
     46 H14A         2.1320     1.6880    -0.8760 hc         1 O58       0.057700
     47 HN16         0.1500     0.1610     0.7570 hn         1 O58       0.328500
     48 H18         -1.2010    -1.2000    -1.4780 h1         1 O58       0.090700
     49 HN21        -3.3810    -1.0710    -1.4470 hn         1 O58       0.308500
     50 H23         -5.5210    -1.2100    -2.0570 ha         1 O58       0.124500
     51 H24         -7.8120    -0.3800    -1.9390 ha         1 O58       0.130500
     52 H26         -6.6560     2.3740     1.1140 ha         1 O58       0.130500
     53 H27         -4.3740     1.5700     1.0060 ha         1 O58       0.124500
     54 H28         -1.1290    -2.1160     1.4360 hc         1 O58       0.064700
     55 H28A        -2.0980    -2.8480     0.1660 hc         1 O58       0.064700
     56 H30          1.3080    -2.4770     1.5170 ha         1 O58       0.127500
     57 H31          3.2310    -3.8390     0.7990 ha         1 O58       0.133000
     58 H32          3.0340    -5.3340    -1.1630 ha         1 O58       0.126000
     59 H33          0.8920    -5.4580    -2.3990 ha         1 O58       0.133000
     60 H34         -1.0300    -4.0950    -1.6810 ha         1 O58       0.127500
     61 H35         -8.8350     2.6600    -0.3020 hc         1 O58       0.033200
     62 H35A        -9.3790     1.2820    -1.2220 hc         1 O58       0.033200
@<TRIPOS>BOND
     1     1     2 ar  
     2     1     6 ar  
     3     1    39 1   
     4     2     3 ar  
     5     2    40 1   
     6     3     4 ar  
     7     3    12 1   
     8     4     5 ar  
     9     4    41 1   
    10     5     6 ar  
    11     5    13 1   
    12     6     7 1   
    13     7     8 1   
    14     7    11 1   
    15     8     9 2   
    16     8    42 1   
    17     9    10 1   
    18    10    11 2   
    19    13    14 1   
    20    13    43 1   
    21    13    44 1   
    22    14    15 1   
    23    14    45 1   
    24    14    46 1   
    25    15    16 1   
    26    15    17 2   
    27    16    18 1   
    28    16    47 1   
    29    18    19 1   
    30    18    28 1   
    31    18    48 1   
    32    19    20 2   
    33    19    21 1   
    34    21    22 1   
    35    21    49 1   
    36    22    23 ar  
    37    22    27 ar  
    38    23    24 ar  
    39    23    50 1   
    40    24    25 ar  
    41    24    51 1   
    42    25    26 ar  
    43    25    35 1   
    44    26    27 ar  
    45    26    52 1   
    46    27    53 1   
    47    28    29 1   
    48    28    54 1   
    49    28    55 1   
    50    29    30 ar  
    51    29    34 ar  
    52    30    31 ar  
    53    30    56 1   
    54    31    32 ar  
    55    31    57 1   
    56    32    33 ar  
    57    32    58 1   
    58    33    34 ar  
    59    33    59 1   
    60    34    60 1   
    61    35    36 1   
    62    35    61 1   
    63    35    62 1   
    64    36    37 1   
    65    36    38 1   
@<TRIPOS>SUBSTRUCTURE
     1 O58         1 TEMP              0 ****  ****    0 ROOT
