@<TRIPOS>MOLECULE
O58
   62    65     1     0     0
SMALL
No Charge or Current Charge


@<TRIPOS>ATOM
      1 C1           6.3430     0.9920     1.4860 ca         1 O58      -0.082000
      2 C2           7.2300     1.6230     0.5980 ca         1 O58      -0.104000
      3 C3           6.9220     1.6850    -0.7690 ca         1 O58       0.135000
      4 C4           5.7320     1.1170    -1.2500 ca         1 O58      -0.100000
      5 C5           4.8340     0.4790    -0.3710 ca         1 O58      -0.033300
      6 C6           5.1450     0.4200     1.0130 ca         1 O58      -0.016200
      7 N7           4.2870    -0.1880     1.9270 na         1 O58       0.005500
      8 C8           3.2560     0.4280     2.5700 cc         1 O58       0.390400
      9 N9           2.7240    -0.5000     3.3460 nd         1 O58      -0.381000
     10 N10          3.4670    -1.6530     3.1550 nd         1 O58      -0.052000
     11 N11          4.4360    -1.4770     2.2910 nc         1 O58      -0.191800
     12 Cl12         8.0300     2.4760    -1.8820 cl         1 O58      -0.185000
     13 C13          3.5520    -0.1250    -0.9440 c3         1 O58      -0.033100
     14 C14          2.4140     0.9160    -1.0600 c3         1 O58      -0.157400
     15 C15          1.1230     0.2590    -1.5520 c          1 O58       0.610100
     16 N16          0.1340     0.1340    -0.6020 ns         1 O58      -0.487900
     17 O17          0.9730    -0.1020    -2.7110 o          1 O58      -0.603100
     18 C18         -1.1380    -0.6050    -0.7920 c3         1 O58       0.024700
     19 C19         -2.3460     0.2130    -0.2510 c          1 O58       0.590100
     20 O20         -2.1990     1.2080     0.4560 o          1 O58      -0.600100
     21 N21         -3.5830    -0.2890    -0.6480 ns         1 O58      -0.124000
     22 C22         -4.9210     0.1220    -0.3860 ca         1 O58      -0.082000
     23 C23         -5.9560    -0.6060    -1.0000 ca         1 O58      -0.143500
     24 C24         -7.3020    -0.2610    -0.7880 ca         1 O58      -0.091000
     25 C25         -7.6370     0.8220     0.0460 ca         1 O58       0.000700
     26 C26         -6.6050     1.5510     0.6650 ca         1 O58      -0.091000
     27 C27         -5.2580     1.2060     0.4540 ca         1 O58      -0.143500
     28 C28         -1.0560    -2.0070    -0.1290 c3         1 O58      -0.047100
     29 C29          0.2040    -2.7840    -0.5030 ca         1 O58      -0.078300
     30 C30          1.2160    -3.0020     0.4540 ca         1 O58      -0.102500
     31 C31          2.3830    -3.7040     0.1050 ca         1 O58      -0.110000
     32 C32          2.5470    -4.1890    -1.2030 ca         1 O58      -0.111000
     33 C33          1.5410    -3.9760    -2.1600 ca         1 O58      -0.110000
     34 C34          0.3720    -3.2780    -1.8110 ca         1 O58      -0.102500
     35 C35         -9.0970     1.2000     0.2740 c3         1 O58      -0.191100
     36 C36         -9.6450     0.4310     1.4850 c          1 O58       0.725000
     37 O37        -10.1080    -0.6840     1.2960 o          1 O58      -0.724500
     38 O38         -9.4900     0.9190     2.5940 o          1 O58      -0.724500
     39 H1           6.5870     0.9480     2.5460 ha         1 O58       0.134000
     40 H2           8.1520     2.0630     0.9670 ha         1 O58       0.138000
     41 H4           5.5080     1.1750    -2.3120 ha         1 O58       0.144000
     42 H8           2.9660     1.4630     2.4400 h5         1 O58       0.080100
     43 H13          3.7510    -0.5480    -1.9370 hc         1 O58       0.079700
     44 H13A         3.2090    -0.9720    -0.3380 hc         1 O58       0.079700
     45 H14          2.2540     1.3740    -0.0770 hc         1 O58       0.057700
     46 H14A         2.7190     1.6850    -1.7800 hc         1 O58       0.057700
     47 HN16         0.3310     0.5190     0.3140 hn         1 O58       0.328500
     48 H18         -1.3110    -0.7400    -1.8680 h1         1 O58       0.090700
     49 HN21        -3.5220    -1.1090    -1.2370 hn         1 O58       0.142000
     50 H23         -5.7200    -1.4470    -1.6490 ha         1 O58       0.106500
     51 H24         -8.0870    -0.8380    -1.2730 ha         1 O58       0.112500
     52 H26         -6.8470     2.3880     1.3160 ha         1 O58       0.112500
     53 H27         -4.4960     1.7940     0.9550 ha         1 O58       0.106500
     54 H28         -1.1080    -1.8840     0.9600 hc         1 O58       0.064700
     55 H28A        -1.9420    -2.5920    -0.4060 hc         1 O58       0.064700
     56 H30          1.1020    -2.6250     1.4670 ha         1 O58       0.109500
     57 H31          3.1610    -3.8670     0.8470 ha         1 O58       0.115000
     58 H32          3.4520    -4.7280    -1.4740 ha         1 O58       0.108000
     59 H33          1.6670    -4.3510    -3.1740 ha         1 O58       0.115000
     60 H34         -0.3990    -3.1140    -2.5590 ha         1 O58       0.109500
     61 H35         -9.1240     2.2790     0.4700 hc         1 O58       0.033200
     62 H35A        -9.6480     0.9190    -0.6320 hc         1 O58       0.033200
@<TRIPOS>BOND
     1     1     2 ar  
     2     1     6 ar  
     3     1    39 1   
     4     2     3 ar  
     5     2    40 1   
     6     3     4 ar  
     7     3    12 1   
     8     4     5 ar  
     9     4    41 1   
    10     5     6 ar  
    11     5    13 1   
    12     6     7 1   
    13     7     8 1   
    14     7    11 1   
    15     8     9 2   
    16     8    42 1   
    17     9    10 1   
    18    10    11 2   
    19    13    14 1   
    20    13    43 1   
    21    13    44 1   
    22    14    15 1   
    23    14    45 1   
    24    14    46 1   
    25    15    16 1   
    26    15    17 2   
    27    16    18 1   
    28    16    47 1   
    29    18    19 1   
    30    18    28 1   
    31    18    48 1   
    32    19    20 2   
    33    19    21 1   
    34    21    22 1   
    35    21    49 1   
    36    22    23 ar  
    37    22    27 ar  
    38    23    24 ar  
    39    23    50 1   
    40    24    25 ar  
    41    24    51 1   
    42    25    26 ar  
    43    25    35 1   
    44    26    27 ar  
    45    26    52 1   
    46    27    53 1   
    47    28    29 1   
    48    28    54 1   
    49    28    55 1   
    50    29    30 ar  
    51    29    34 ar  
    52    30    31 ar  
    53    30    56 1   
    54    31    32 ar  
    55    31    57 1   
    56    32    33 ar  
    57    32    58 1   
    58    33    34 ar  
    59    33    59 1   
    60    34    60 1   
    61    35    36 1   
    62    35    61 1   
    63    35    62 1   
    64    36    37 1   
    65    36    38 1   
@<TRIPOS>SUBSTRUCTURE
     1 O58         1 TEMP              0 ****  ****    0 ROOT
