@<TRIPOS>MOLECULE
O59
   38    37     1     0     0
SMALL
bcc


@<TRIPOS>ATOM
      1 C1           4.4280    -0.3380     0.0420 c3         1 O59       0.181400
      2 N1           7.2430    -0.5440    -1.5510 n8         1 O59      -0.945700
      3 O1           7.1500    -1.1880     0.8370 o          1 O59      -0.616800
      4 S1           7.0350    -0.0300    -0.0210 s6         1 O59       1.544900
      5 C2           3.1720     0.5050     0.0690 c3         1 O59      -0.082900
      6 N2          -6.9020     0.5110    -1.6210 n8         1 O59      -0.945700
      7 O2           7.8700     1.1290     0.1780 o          1 O59      -0.616800
      8 S2          -6.9900     0.0610    -0.0500 s6         1 O59       1.544900
      9 C3           1.9230    -0.3680     0.0480 c3         1 O59      -0.077900
     10 O3           5.5550     0.5640     0.0960 os         1 O59      -0.557500
     11 C4           0.6400     0.4540     0.0890 c3         1 O59      -0.074400
     12 O4          -5.5330    -0.5140     0.2040 os         1 O59      -0.557500
     13 C5          -0.6160    -0.4060     0.0800 c3         1 O59      -0.074400
     14 O5          -7.2040     1.2680     0.7190 o          1 O59      -0.616800
     15 C6          -1.8980     0.4160     0.1280 c3         1 O59      -0.077900
     16 O6          -7.8400    -1.0870     0.1710 o          1 O59      -0.616800
     17 C7          -3.1480    -0.4580     0.1270 c3         1 O59      -0.082900
     18 C8          -4.4010     0.3880     0.1770 c3         1 O59       0.181400
     19 H1           4.4600    -1.0170     0.8960 h1         1 O59       0.048700
     20 H1A          4.4680    -0.9320    -0.8770 h1         1 O59       0.048700
     21 HN1          7.1360     0.1720    -2.2600 hn         1 O59       0.430300
     22 HN1A         6.7630    -1.4030    -1.7920 hn         1 O59       0.430300
     23 H2           3.1700     1.1270     0.9690 hc         1 O59       0.060700
     24 H2A          3.1650     1.1810    -0.7910 hc         1 O59       0.060700
     25 HN2         -7.5450     1.2600    -1.8530 hn         1 O59       0.430300
     26 HN2A        -6.9740    -0.2600    -2.2740 hn         1 O59       0.430300
     27 H3           1.9250    -0.9930    -0.8520 hc         1 O59       0.041200
     28 H3A          1.9410    -1.0560     0.8990 hc         1 O59       0.041200
     29 H4           0.6430     1.0840     0.9850 hc         1 O59       0.042200
     30 H4A          0.6200     1.1380    -0.7650 hc         1 O59       0.042200
     31 H5          -0.6210    -1.0350    -0.8170 hc         1 O59       0.042200
     32 H5A         -0.5930    -1.0930     0.9330 hc         1 O59       0.042200
     33 H6          -1.8920     1.0460     1.0240 hc         1 O59       0.041200
     34 H6A         -1.9250     1.0980    -0.7280 hc         1 O59       0.041200
     35 H7          -3.1620    -1.0790    -0.7730 hc         1 O59       0.060700
     36 H7A         -3.1240    -1.1330     0.9870 hc         1 O59       0.060700
     37 H8          -4.4650     1.0360    -0.7000 h1         1 O59       0.048700
     38 H8A         -4.4190     1.0090     1.0750 h1         1 O59       0.048700
@<TRIPOS>BOND
     1     1     5 1   
     2     1    10 1   
     3     1    19 1   
     4     1    20 1   
     5     2     4 1   
     6     2    21 1   
     7     2    22 1   
     8     3     4 2   
     9     4     7 2   
    10     4    10 1   
    11     5     9 1   
    12     5    23 1   
    13     5    24 1   
    14     6     8 1   
    15     6    25 1   
    16     6    26 1   
    17     8    12 1   
    18     8    14 2   
    19     8    16 2   
    20     9    11 1   
    21     9    27 1   
    22     9    28 1   
    23    11    13 1   
    24    11    29 1   
    25    11    30 1   
    26    12    18 1   
    27    13    15 1   
    28    13    31 1   
    29    13    32 1   
    30    15    17 1   
    31    15    33 1   
    32    15    34 1   
    33    17    18 1   
    34    17    35 1   
    35    17    36 1   
    36    18    37 1   
    37    18    38 1   
@<TRIPOS>SUBSTRUCTURE
     1 O59         1 TEMP              0 ****  ****    0 ROOT
