@<TRIPOS>MOLECULE
O59
   38    37     1     0     0
SMALL
No Charge or Current Charge


@<TRIPOS>ATOM
      1 C1           4.4740    -0.6810    -0.1950 c3         1 O59       0.204600
      2 N1           7.6610     0.5040     0.5140 n8         1 O59      -1.056100
      3 O1           7.8410    -0.5540    -1.6810 o          1 O59      -0.546000
      4 S1           7.0740    -0.6490    -0.4430 s6         1 O59       1.403300
      5 C2           3.2310     0.1720    -0.5080 c3         1 O59      -0.082900
      6 N2          -7.6580    -0.4770    -0.8820 n8         1 O59      -1.056100
      7 O2           6.9730    -1.8790     0.3410 o          1 O59      -0.546000
      8 S2          -7.0710     0.6760     0.0750 s6         1 O59       1.403300
      9 C3           1.9080    -0.5040    -0.0820 c3         1 O59      -0.077900
     10 O3           5.6200     0.0590    -0.6410 os         1 O59      -0.580700
     11 C4           0.6620     0.3520    -0.3970 c3         1 O59      -0.074400
     12 O4          -5.6170    -0.0320     0.2740 os         1 O59      -0.580700
     13 C5          -0.6590    -0.3250     0.0290 c3         1 O59      -0.074400
     14 O5          -6.9710     1.9060    -0.7090 o          1 O59      -0.546000
     15 C6          -1.9050     0.5320    -0.2860 c3         1 O59      -0.077900
     16 O6          -7.8380     0.5810     1.3130 o          1 O59      -0.546000
     17 C7          -3.2280    -0.1450     0.1400 c3         1 O59      -0.082900
     18 C8          -4.4710     0.7080    -0.1730 c3         1 O59       0.204600
     19 H1           4.5210    -0.8720     0.8860 h1         1 O59       0.048700
     20 H1A          4.3950    -1.6440    -0.7190 h1         1 O59       0.048700
     21 HN1          6.8920     1.1560     0.3880 hn         1 O59       0.485500
     22 HN1A         8.3820     0.8580    -0.1080 hn         1 O59       0.485500
     23 H2           3.3240     1.1390     0.0020 hc         1 O59       0.060700
     24 H2A          3.2020     0.3770    -1.5860 hc         1 O59       0.060700
     25 HN2         -8.3780    -0.8320    -0.2610 hn         1 O59       0.485500
     26 HN2A        -6.8890    -1.1290    -0.7560 hn         1 O59       0.485500
     27 H3           1.8180    -1.4720    -0.5920 hc         1 O59       0.041200
     28 H3A          1.9400    -0.7110     0.9950 hc         1 O59       0.041200
     29 H4           0.7520     1.3200     0.1130 hc         1 O59       0.042200
     30 H4A          0.6300     0.5590    -1.4740 hc         1 O59       0.042200
     31 H5          -0.7490    -1.2930    -0.4810 hc         1 O59       0.042200
     32 H5A         -0.6270    -0.5320     1.1060 hc         1 O59       0.042200
     33 H6          -1.8160     1.4990     0.2240 hc         1 O59       0.041200
     34 H6A         -1.9380     0.7390    -1.3630 hc         1 O59       0.041200
     35 H7          -3.3210    -1.1120    -0.3700 hc         1 O59       0.060700
     36 H7A         -3.1990    -0.3500     1.2180 hc         1 O59       0.060700
     37 H8          -4.5180     0.8990    -1.2540 h1         1 O59       0.048700
     38 H8A         -4.3930     1.6710     0.3510 h1         1 O59       0.048700
@<TRIPOS>BOND
     1     1     5 1   
     2     1    10 1   
     3     1    19 1   
     4     1    20 1   
     5     2     4 1   
     6     2    21 1   
     7     2    22 1   
     8     3     4 2   
     9     4     7 2   
    10     4    10 1   
    11     5     9 1   
    12     5    23 1   
    13     5    24 1   
    14     6     8 1   
    15     6    25 1   
    16     6    26 1   
    17     8    12 1   
    18     8    14 2   
    19     8    16 2   
    20     9    11 1   
    21     9    27 1   
    22     9    28 1   
    23    11    13 1   
    24    11    29 1   
    25    11    30 1   
    26    12    18 1   
    27    13    15 1   
    28    13    31 1   
    29    13    32 1   
    30    15    17 1   
    31    15    33 1   
    32    15    34 1   
    33    17    18 1   
    34    17    35 1   
    35    17    36 1   
    36    18    37 1   
    37    18    38 1   
@<TRIPOS>SUBSTRUCTURE
     1 O59         1 TEMP              0 ****  ****    0 ROOT
