@<TRIPOS>MOLECULE
O5A
   66    69     1     0     0
SMALL
No Charge or Current Charge


@<TRIPOS>ATOM
      1 C1          -2.7610     0.3130     0.7480 ca         1 O5A      -0.066500
      2 C2          -2.6800     1.3690    -0.1870 ca         1 O5A      -0.151300
      3 C3          -1.4540     1.5500    -0.8670 ca         1 O5A      -0.066500
      4 C4          -0.3550     0.7120    -0.6160 ca         1 O5A      -0.098500
      5 C5          -0.4290    -0.3320     0.3310 ca         1 O5A      -0.047300
      6 C6          -1.6610    -0.5210     0.9970 ca         1 O5A      -0.098500
      7 C7          -3.9040     2.2790    -0.4910 c3         1 O5A       0.128300
      8 C8           0.7600    -1.3000     0.5430 c5         1 O5A      -0.195700
      9 C9          -5.0210     1.4650    -1.2400 c3         1 O5A       0.298500
     10 C10         -4.4300     2.9970     0.8070 c3         1 O5A       0.298500
     11 S11          0.7380    -2.6610    -0.7570 sy         1 O5A       1.019500
     12 C12         -0.9260    -3.3570    -0.7060 ca         1 O5A      -0.281500
     13 C13         -1.1970    -4.5000     0.0740 ca         1 O5A       0.014000
     14 C14         -2.5050    -5.0110     0.1330 ca         1 O5A      -0.177500
     15 C15         -3.5370    -4.3810    -0.5790 ca         1 O5A       0.223000
     16 C16         -3.2730    -3.2430    -1.3530 ca         1 O5A      -0.177500
     17 C17         -1.9680    -2.7280    -1.4210 ca         1 O5A       0.014000
     18 O18          0.8940    -2.0050    -2.0630 o          1 O5A      -0.498000
     19 O19          1.6730    -3.7170    -0.3490 o          1 O5A      -0.498000
     20 F20         -5.5320     0.4730    -0.4750 f          1 O5A      -0.093500
     21 F21         -6.0590     2.2540    -1.6080 f          1 O5A      -0.093500
     22 F22         -4.5260     0.8830    -2.3580 f          1 O5A      -0.093500
     23 C23          2.1040    -0.5090     0.4800 c5         1 O5A       0.128000
     24 N24          2.9750    -1.2390     1.4320 n          1 O5A      -0.432800
     25 C25          2.2470    -2.2140     2.2730 c5         1 O5A       0.099000
     26 C26          0.7610    -1.8530     2.0100 c5         1 O5A      -0.070400
     27 F27         -3.5280     3.2750    -1.3400 f          1 O5A      -0.206000
     28 F28         -3.4120     3.5800     1.4840 f          1 O5A      -0.093500
     29 F29         -5.3340     3.9620     0.5130 f          1 O5A      -0.093500
     30 F30         -5.0400     2.1440     1.6620 f          1 O5A      -0.093500
     31 F31         -4.7930    -4.8730    -0.5150 f          1 O5A      -0.171000
     32 C32          4.3660    -1.0280     1.5790 c          1 O5A       0.616100
     33 O33          4.9940    -1.6750     2.4090 o          1 O5A      -0.600100
     34 C34          5.0790     0.0760     0.7490 c6         1 O5A      -0.132700
     35 C35          6.5390    -0.2700     0.3420 c6         1 O5A      -0.068400
     36 C36          7.1560     0.8470    -0.5360 c6         1 O5A      -0.055400
     37 C37          7.0680     2.2360     0.1620 c6         1 O5A      -0.190700
     38 C38          5.5940     2.5760     0.5290 c6         1 O5A      -0.055400
     39 C39          4.9580     1.4740     1.4140 c6         1 O5A      -0.068400
     40 C40          7.7340     3.3550    -0.6770 c          1 O5A       0.719000
     41 O41          8.6990     3.9330    -0.1990 o          1 O5A      -0.736500
     42 O42          7.2710     3.6130    -1.7790 o          1 O5A      -0.736500
     43 H1          -3.6850     0.1100     1.2820 ha         1 O5A       0.136000
     44 H2          -1.3400     2.3330    -1.6130 ha         1 O5A       0.136000
     45 H3           0.5540     0.8740    -1.1900 ha         1 O5A       0.135500
     46 H4          -1.7920    -1.3380     1.7010 ha         1 O5A       0.135500
     47 H5          -0.4050    -4.9920     0.6380 ha         1 O5A       0.143000
     48 H6          -2.7210    -5.8910     0.7330 ha         1 O5A       0.137500
     49 H7          -4.0800    -2.7590    -1.8970 ha         1 O5A       0.137500
     50 H8          -1.7750    -1.8360    -2.0160 ha         1 O5A       0.143000
     51 H9           2.5120    -0.4840    -0.5390 h1         1 O5A       0.075700
     52 H10          1.9760     0.5280     0.8210 h1         1 O5A       0.075700
     53 H11          2.4830    -3.2430     1.9740 h1         1 O5A       0.066700
     54 H12          2.5000    -2.1110     3.3370 h1         1 O5A       0.066700
     55 H13          0.4520    -1.0770     2.7210 hc         1 O5A       0.053700
     56 H14          0.0950    -2.7090     2.1600 hc         1 O5A       0.053700
     57 H15          4.5100     0.1800    -0.1800 hc         1 O5A       0.056700
     58 H16          7.1550    -0.4090     1.2420 hc         1 O5A       0.031450
     59 H17          6.5610    -1.2240    -0.2030 hc         1 O5A       0.031450
     60 H18          8.2050     0.6060    -0.7540 hc         1 O5A       0.044200
     61 H19          6.6370     0.8810    -1.5040 hc         1 O5A       0.044200
     62 H20          7.6340     2.1680     1.1020 hc         1 O5A       0.028700
     63 H21          5.5540     3.5390     1.0560 hc         1 O5A       0.044200
     64 H22          4.9980     2.6990    -0.3870 hc         1 O5A       0.044200
     65 H23          3.9040     1.7170     1.6040 hc         1 O5A       0.031450
     66 H24          5.4540     1.4590     2.3940 hc         1 O5A       0.031450
@<TRIPOS>BOND
     1     1     2 ar  
     2     1     6 ar  
     3     1    43 1   
     4     2     3 ar  
     5     2     7 1   
     6     3     4 ar  
     7     3    44 1   
     8     4     5 ar  
     9     4    45 1   
    10     5     6 ar  
    11     5     8 1   
    12     6    46 1   
    13     7     9 1   
    14     7    10 1   
    15     7    27 1   
    16     8    11 1   
    17     8    23 1   
    18     8    26 1   
    19     9    20 1   
    20     9    21 1   
    21     9    22 1   
    22    10    28 1   
    23    10    29 1   
    24    10    30 1   
    25    11    12 1   
    26    11    18 2   
    27    11    19 2   
    28    12    13 ar  
    29    12    17 ar  
    30    13    14 ar  
    31    13    47 1   
    32    14    15 ar  
    33    14    48 1   
    34    15    16 ar  
    35    15    31 1   
    36    16    17 ar  
    37    16    49 1   
    38    17    50 1   
    39    23    24 1   
    40    23    51 1   
    41    23    52 1   
    42    24    25 1   
    43    24    32 1   
    44    25    26 1   
    45    25    53 1   
    46    25    54 1   
    47    26    55 1   
    48    26    56 1   
    49    32    33 2   
    50    32    34 1   
    51    34    35 1   
    52    34    39 1   
    53    34    57 1   
    54    35    36 1   
    55    35    58 1   
    56    35    59 1   
    57    36    37 1   
    58    36    60 1   
    59    36    61 1   
    60    37    38 1   
    61    37    40 1   
    62    37    62 1   
    63    38    39 1   
    64    38    63 1   
    65    38    64 1   
    66    39    65 1   
    67    39    66 1   
    68    40    41 1   
    69    40    42 1   
@<TRIPOS>SUBSTRUCTURE
     1 O5A         1 TEMP              0 ****  ****    0 ROOT
