@<TRIPOS>MOLECULE
O5A
   66    69     1     0     0
SMALL
bcc


@<TRIPOS>ATOM
      1 C1          -2.8870     0.1150     0.9250 ca         1 O5A      -0.084500
      2 C2          -2.8590     1.2030     0.0560 ca         1 O5A      -0.151300
      3 C3          -1.6400     1.6230    -0.4640 ca         1 O5A      -0.084500
      4 C4          -0.4710     0.9540    -0.1370 ca         1 O5A      -0.116500
      5 C5          -0.4940    -0.1420     0.7160 ca         1 O5A      -0.047300
      6 C6          -1.7150    -0.5420     1.2500 ca         1 O5A      -0.116500
      7 C7          -4.1230     1.9140    -0.3750 c3         1 O5A       0.109600
      8 C8           0.7520    -0.9330     0.9890 c5         1 O5A      -0.084900
      9 C9          -4.9270     1.0350    -1.3590 c3         1 O5A       0.662400
     10 C10         -4.9550     2.4260     0.8240 c3         1 O5A       0.662400
     11 S11          0.9760    -2.0930    -0.4460 sy         1 O5A       1.050300
     12 C12         -0.6290    -2.7850    -0.7220 ca         1 O5A      -0.281500
     13 C13         -0.9960    -3.9500    -0.0590 ca         1 O5A      -0.004000
     14 C14         -2.2660    -4.4690    -0.2470 ca         1 O5A      -0.195500
     15 C15         -3.1310    -3.8090    -1.1000 ca         1 O5A       0.187900
     16 C16         -2.7760    -2.6560    -1.7780 ca         1 O5A      -0.195500
     17 C17         -1.5070    -2.1420    -1.5870 ca         1 O5A      -0.004000
     18 O18          1.3190    -1.2780    -1.6100 o          1 O5A      -0.568800
     19 O19          1.8770    -3.1720    -0.0520 o          1 O5A      -0.568800
     20 F20         -5.3020    -0.1110    -0.7990 f          1 O5A      -0.214800
     21 F21         -6.0160     1.6520    -1.8060 f          1 O5A      -0.214800
     22 F22         -4.1620     0.7490    -2.4090 f          1 O5A      -0.214800
     23 C23          2.0320    -0.0970     1.0890 c5         1 O5A       0.128000
     24 N24          2.9540    -0.9690     1.7770 n          1 O5A      -0.499800
     25 C25          2.2560    -1.9070     2.6460 c5         1 O5A       0.099000
     26 C26          0.7770    -1.7160     2.3040 c5         1 O5A      -0.070400
     27 F27         -3.8070     3.0460    -1.0850 f          1 O5A      -0.187300
     28 F28         -4.1590     3.0750     1.6690 f          1 O5A      -0.214800
     29 F29         -5.9030     3.2690     0.4320 f          1 O5A      -0.214800
     30 F30         -5.5420     1.4310     1.4860 f          1 O5A      -0.214800
     31 F31         -4.3570    -4.3040    -1.2790 f          1 O5A      -0.135900
     32 C32          4.2920    -1.0500     1.6080 c          1 O5A       0.683100
     33 O33          4.9430    -1.8600     2.2550 o          1 O5A      -0.600100
     34 C34          4.9410    -0.0940     0.6260 c6         1 O5A      -0.132700
     35 C35          6.3210    -0.5760     0.1900 c6         1 O5A      -0.068400
     36 C36          6.9420     0.3970    -0.8080 c6         1 O5A      -0.055400
     37 C37          7.0560     1.8020    -0.2290 c6         1 O5A      -0.190700
     38 C38          5.6880     2.2880     0.2520 c6         1 O5A      -0.055400
     39 C39          5.0410     1.3140     1.2320 c6         1 O5A      -0.068400
     40 C40          7.7100     2.8240    -1.1810 c          1 O5A       0.929600
     41 O41          7.7220     4.0130    -0.7940 o          1 O5A      -0.841800
     42 O42          8.1910     2.4030    -2.2520 o          1 O5A      -0.841800
     43 H1          -3.8060    -0.2560     1.3540 ha         1 O5A       0.154000
     44 H2          -1.5770     2.4640    -1.1380 ha         1 O5A       0.154000
     45 H3           0.4560     1.3020    -0.5710 ha         1 O5A       0.153500
     46 H4          -1.7700    -1.3940     1.9140 ha         1 O5A       0.153500
     47 H5          -0.3060    -4.4640     0.5960 ha         1 O5A       0.161000
     48 H6          -2.5740    -5.3760     0.2550 ha         1 O5A       0.155500
     49 H7          -3.4750    -2.1720    -2.4450 ha         1 O5A       0.155500
     50 H8          -1.2120    -1.2420    -2.1070 ha         1 O5A       0.161000
     51 H9           2.4100     0.2390     0.1270 h1         1 O5A       0.075700
     52 H10          1.8000     0.7980     1.6770 h1         1 O5A       0.075700
     53 H11          2.5950    -2.9220     2.4490 h1         1 O5A       0.066700
     54 H12          2.4430    -1.6910     3.6990 h1         1 O5A       0.066700
     55 H13          0.2900    -1.0990     3.0600 hc         1 O5A       0.053700
     56 H14          0.2310    -2.6590     2.2750 hc         1 O5A       0.053700
     57 H15          4.3180    -0.0310    -0.2750 hc         1 O5A       0.056700
     58 H16          6.9710    -0.6640     1.0650 hc         1 O5A       0.031450
     59 H17          6.2480    -1.5730    -0.2520 hc         1 O5A       0.031450
     60 H18          7.9260     0.0310    -1.1090 hc         1 O5A       0.044200
     61 H19          6.3330     0.4260    -1.7190 hc         1 O5A       0.044200
     62 H20          7.7050     1.7440     0.6590 hc         1 O5A       0.028700
     63 H21          5.7820     3.2690     0.7180 hc         1 O5A       0.044200
     64 H22          5.0230     2.4120    -0.6110 hc         1 O5A       0.044200
     65 H23          4.0560     1.6890     1.5230 hc         1 O5A       0.031450
     66 H24          5.6380     1.2600     2.1480 hc         1 O5A       0.031450
@<TRIPOS>BOND
     1     1     2 ar  
     2     1     6 ar  
     3     1    43 1   
     4     2     3 ar  
     5     2     7 1   
     6     3     4 ar  
     7     3    44 1   
     8     4     5 ar  
     9     4    45 1   
    10     5     6 ar  
    11     5     8 1   
    12     6    46 1   
    13     7     9 1   
    14     7    10 1   
    15     7    27 1   
    16     8    11 1   
    17     8    23 1   
    18     8    26 1   
    19     9    20 1   
    20     9    21 1   
    21     9    22 1   
    22    10    28 1   
    23    10    29 1   
    24    10    30 1   
    25    11    12 1   
    26    11    18 2   
    27    11    19 2   
    28    12    13 ar  
    29    12    17 ar  
    30    13    14 ar  
    31    13    47 1   
    32    14    15 ar  
    33    14    48 1   
    34    15    16 ar  
    35    15    31 1   
    36    16    17 ar  
    37    16    49 1   
    38    17    50 1   
    39    23    24 1   
    40    23    51 1   
    41    23    52 1   
    42    24    25 1   
    43    24    32 1   
    44    25    26 1   
    45    25    53 1   
    46    25    54 1   
    47    26    55 1   
    48    26    56 1   
    49    32    33 2   
    50    32    34 1   
    51    34    35 1   
    52    34    39 1   
    53    34    57 1   
    54    35    36 1   
    55    35    58 1   
    56    35    59 1   
    57    36    37 1   
    58    36    60 1   
    59    36    61 1   
    60    37    38 1   
    61    37    40 1   
    62    37    62 1   
    63    38    39 1   
    64    38    63 1   
    65    38    64 1   
    66    39    65 1   
    67    39    66 1   
    68    40    41 1   
    69    40    42 1   
@<TRIPOS>SUBSTRUCTURE
     1 O5A         1 TEMP              0 ****  ****    0 ROOT
