@<TRIPOS>MOLECULE
O5B
   70    74     1     0     0
SMALL
bcc


@<TRIPOS>ATOM
      1 C1          66.2810    36.9360    13.1630 c5         1 O5B      -0.070400
      2 C2          65.1450    37.5420    13.9690 c5         1 O5B       0.114000
      3 N3          64.8650    36.5050    14.9380 n          1 O5B      -0.482800
      4 C4          66.1130    35.9310    15.4070 c5         1 O5B       0.138700
      5 C5          67.0990    36.1530    14.2190 c5         1 O5B      -0.069900
      6 C6          66.5710    36.5910    16.7020 c6         1 O5B      -0.094400
      7 C7          68.0130    36.2290    16.9980 c6         1 O5B      -0.038100
      8 C8          68.8800    36.7710    15.9050 ca         1 O5B      -0.060300
      9 C9          68.4190    36.7910    14.5880 ca         1 O5B      -0.049300
     10 C10         70.1240    37.3120    16.2090 ca         1 O5B      -0.086000
     11 C11         70.9300    37.8640    15.2250 ca         1 O5B      -0.146300
     12 C12         70.4800    37.8700    13.9080 ca         1 O5B      -0.098000
     13 C13         69.2380    37.3430    13.6050 ca         1 O5B      -0.110000
     14 C14         72.2770    38.4230    15.6250 c3         1 O5B       0.108600
     15 S15         67.4930    34.5180    13.4490 sy         1 O5B       1.052300
     16 C16         68.4320    33.6400    14.6660 ca         1 O5B      -0.282500
     17 C17         69.7980    33.8740    14.7870 ca         1 O5B      -0.002500
     18 C18         70.5200    33.2020    15.7580 ca         1 O5B      -0.196000
     19 C19         68.5030    32.0490    16.4590 ca         1 O5B      -0.196000
     20 C20         67.7840    32.7280    15.4910 ca         1 O5B      -0.002500
     21 C21         69.8570    32.3020    16.5760 ca         1 O5B       0.187900
     22 F22         70.5490    31.6490    17.5110 f          1 O5B      -0.135900
     23 O23         68.3460    34.7710    12.2900 o          1 O5B      -0.581800
     24 O24         66.2390    33.7990    13.2420 o          1 O5B      -0.581800
     25 C25         72.4830    39.8830    15.1540 c3         1 O5B       0.663900
     26 C26         73.4050    37.4630    15.1960 c3         1 O5B       0.663900
     27 F27         72.3700    38.4880    16.9940 f          1 O5B      -0.191300
     28 F28         73.4360    37.3010    13.8770 f          1 O5B      -0.214633
     29 F29         74.6000    37.8910    15.5920 f          1 O5B      -0.214633
     30 F30         73.1940    36.2740    15.7530 f          1 O5B      -0.214633
     31 F31         71.4040    40.6020    15.4500 f          1 O5B      -0.214633
     32 F32         72.6830    39.9600    13.8410 f          1 O5B      -0.214633
     33 F33         73.5220    40.4480    15.7590 f          1 O5B      -0.214633
     34 C34         63.6940    36.2040    15.5440 c          1 O5B       0.685100
     35 C35         62.4710    37.0070    15.1470 c6         1 O5B      -0.129700
     36 O36         63.6450    35.3350    16.4050 o          1 O5B      -0.613100
     37 C37         61.1770    36.2750    15.4840 c6         1 O5B      -0.069400
     38 C38         59.9610    37.1130    15.1050 c6         1 O5B      -0.053900
     39 C39         59.9700    38.4740    15.7940 c6         1 O5B      -0.193700
     40 C40         61.2730    39.2080    15.4890 c6         1 O5B      -0.053900
     41 C41         62.4990    38.3750    15.8470 c6         1 O5B      -0.069400
     42 C42         58.7090    39.3180    15.4890 c          1 O5B       0.932600
     43 O43         58.8270    40.5580    15.5550 o          1 O5B      -0.839800
     44 O44         57.6630    38.6920    15.2210 o          1 O5B      -0.839800
     45 H1          65.8600    36.2770    12.4020 hc         1 O5B       0.068200
     46 H2          66.8700    37.6910    12.6500 hc         1 O5B       0.068200
     47 H3          65.4640    38.4680    14.4590 h1         1 O5B       0.060700
     48 H4          64.2840    37.7700    13.3460 h1         1 O5B       0.060700
     49 H5          65.9640    34.8690    15.6090 h1         1 O5B       0.077700
     50 H6          66.4770    37.6780    16.6220 hc         1 O5B       0.069700
     51 H7          65.9150    36.2650    17.5080 hc         1 O5B       0.069700
     52 H8          68.1220    35.1420    17.0770 hc         1 O5B       0.058200
     53 H9          68.3240    36.6400    17.9590 hc         1 O5B       0.058200
     54 H10         70.4400    37.2950    17.2420 ha         1 O5B       0.151000
     55 H11         71.0660    38.2810    13.1000 ha         1 O5B       0.152000
     56 H12         68.9210    37.3670    12.5730 ha         1 O5B       0.158000
     57 H13         70.3100    34.5670    14.1320 ha         1 O5B       0.164000
     58 H14         71.5830    33.3700    15.8730 ha         1 O5B       0.158000
     59 H15         68.0170    31.3330    17.1080 ha         1 O5B       0.158000
     60 H16         66.7250    32.5360    15.3850 ha         1 O5B       0.164000
     61 H17         62.4840    37.1850    14.0660 hc         1 O5B       0.055700
     62 H18         61.1440    36.0620    16.5560 hc         1 O5B       0.030450
     63 H19         61.1440    35.3110    14.9700 hc         1 O5B       0.030450
     64 H20         59.9430    37.2560    14.0180 hc         1 O5B       0.044200
     65 H21         59.0500    36.5710    15.3600 hc         1 O5B       0.044200
     66 H22         59.9530    38.2870    16.8800 hc         1 O5B       0.026700
     67 H23         61.3110    39.4600    14.4230 hc         1 O5B       0.044200
     68 H24         61.3080    40.1540    16.0310 hc         1 O5B       0.044200
     69 H25         62.5310    38.2140    16.9300 hc         1 O5B       0.030450
     70 H26         63.4080    38.9250    15.5880 hc         1 O5B       0.030450
@<TRIPOS>BOND
     1     1     2 1   
     2     1     5 1   
     3     1    45 1   
     4     1    46 1   
     5     2     3 1   
     6     2    47 1   
     7     2    48 1   
     8     3     4 1   
     9     3    34 1   
    10     4     5 1   
    11     4     6 1   
    12     4    49 1   
    13     5     9 1   
    14     5    15 1   
    15     6     7 1   
    16     6    50 1   
    17     6    51 1   
    18     7     8 1   
    19     7    52 1   
    20     7    53 1   
    21     8     9 ar  
    22     8    10 ar  
    23     9    13 ar  
    24    10    11 ar  
    25    10    54 1   
    26    11    12 ar  
    27    11    14 1   
    28    12    13 ar  
    29    12    55 1   
    30    13    56 1   
    31    14    25 1   
    32    14    26 1   
    33    14    27 1   
    34    15    16 1   
    35    15    23 2   
    36    15    24 2   
    37    16    17 ar  
    38    16    20 ar  
    39    17    18 ar  
    40    17    57 1   
    41    18    21 ar  
    42    18    58 1   
    43    19    20 ar  
    44    19    21 ar  
    45    19    59 1   
    46    20    60 1   
    47    21    22 1   
    48    25    31 1   
    49    25    32 1   
    50    25    33 1   
    51    26    28 1   
    52    26    29 1   
    53    26    30 1   
    54    34    35 1   
    55    34    36 2   
    56    35    37 1   
    57    35    41 1   
    58    35    61 1   
    59    37    38 1   
    60    37    62 1   
    61    37    63 1   
    62    38    39 1   
    63    38    64 1   
    64    38    65 1   
    65    39    40 1   
    66    39    42 1   
    67    39    66 1   
    68    40    41 1   
    69    40    67 1   
    70    40    68 1   
    71    41    69 1   
    72    41    70 1   
    73    42    43 1   
    74    42    44 1   
@<TRIPOS>SUBSTRUCTURE
     1 O5B         1 TEMP              0 ****  ****    0 ROOT
