@<TRIPOS>MOLECULE
O5B
   70    74     1     0     0
SMALL
No Charge or Current Charge


@<TRIPOS>ATOM
      1 C1          66.4780    37.8370    13.7300 c5         1 O5B      -0.070400
      2 C2          64.9690    37.5620    13.9380 c5         1 O5B       0.114000
      3 N3          64.9290    36.9190    15.2750 n          1 O5B      -0.415800
      4 C4          66.2620    36.4780    15.7570 c5         1 O5B       0.138700
      5 C5          67.1540    36.6450    14.4780 c5         1 O5B      -0.180700
      6 C6          66.7060    37.3410    16.9530 c6         1 O5B      -0.094400
      7 C7          68.1420    36.9620    17.3380 c6         1 O5B      -0.038100
      8 C8          69.0850    37.1530    16.1550 ca         1 O5B      -0.060300
      9 C9          68.6090    37.0600    14.8240 ca         1 O5B      -0.049300
     10 C10         70.4360    37.4530    16.4140 ca         1 O5B      -0.068000
     11 C11         71.3520    37.6940    15.3650 ca         1 O5B      -0.146300
     12 C12         70.8600    37.6510    14.0440 ca         1 O5B      -0.080000
     13 C13         69.5160    37.3460    13.7830 ca         1 O5B      -0.092000
     14 C14         72.8470    38.0020    15.6640 c3         1 O5B       0.127300
     15 S15         67.0880    35.0100    13.5000 sy         1 O5B       1.021500
     16 C16         68.0960    33.8550    14.4530 ca         1 O5B      -0.282500
     17 C17         69.5000    33.8730    14.3150 ca         1 O5B       0.015500
     18 C18         70.2900    33.0050    15.0870 ca         1 O5B      -0.178000
     19 C19         68.2870    32.0980    16.1300 ca         1 O5B      -0.178000
     20 C20         67.4890    32.9650    15.3640 ca         1 O5B       0.015500
     21 C21         69.6820    32.1220    15.9900 ca         1 O5B       0.223000
     22 F22         70.4450    31.2900    16.7320 f          1 O5B      -0.171000
     23 O23         67.7810    35.2370    12.2250 o          1 O5B      -0.511000
     24 O24         65.7100    34.4840    13.4970 o          1 O5B      -0.511000
     25 C25         73.2360    39.4490    15.1870 c3         1 O5B       0.300000
     26 C26         73.7790    36.8840    15.0680 c3         1 O5B       0.300000
     27 F27         73.0560    37.9830    17.0100 f          1 O5B      -0.210000
     28 F28         73.7830    36.8810    13.7150 f          1 O5B      -0.093333
     29 F29         75.0660    37.0400    15.4620 f          1 O5B      -0.093333
     30 F30         73.3720    35.6540    15.4640 f          1 O5B      -0.093333
     31 F31         72.3750    40.3690    15.6860 f          1 O5B      -0.093333
     32 F32         73.2120    39.5740    13.8400 f          1 O5B      -0.093333
     33 F33         74.4840    39.7910    15.5890 f          1 O5B      -0.093333
     34 C34         63.7360    36.4560    15.8790 c          1 O5B       0.618100
     35 C35         62.3650    36.9820    15.3690 c6         1 O5B      -0.129700
     36 O36         63.7880    35.7260    16.8620 o          1 O5B      -0.613100
     37 C37         61.1850    35.9870    15.5500 c6         1 O5B      -0.069400
     38 C38         59.8730    36.5620    14.9590 c6         1 O5B      -0.053900
     39 C39         59.5410    37.9600    15.5570 c6         1 O5B      -0.193700
     40 C40         60.7230    38.9480    15.3340 c6         1 O5B      -0.053900
     41 C41         62.0460    38.3970    15.9240 c6         1 O5B      -0.069400
     42 C42         58.2020    38.5220    15.0190 c          1 O5B       0.722000
     43 O43         58.1010    38.7460    13.8210 o          1 O5B      -0.734500
     44 O44         57.3000    38.7180    15.8200 o          1 O5B      -0.734500
     45 H1          66.7480    37.9010    12.6700 hc         1 O5B       0.068200
     46 H2          66.7510    38.7960    14.1870 hc         1 O5B       0.068200
     47 H3          64.3870    38.4920    13.9050 h1         1 O5B       0.060700
     48 H4          64.5740    36.8850    13.1680 h1         1 O5B       0.060700
     49 H5          66.2400    35.4320    16.0940 h1         1 O5B       0.077700
     50 H6          66.6530    38.4080    16.6960 hc         1 O5B       0.069700
     51 H7          66.0320    37.1840    17.8060 hc         1 O5B       0.069700
     52 H8          68.1800    35.9160    17.6740 hc         1 O5B       0.058200
     53 H9          68.4640    37.5770    18.1890 hc         1 O5B       0.058200
     54 H10         70.7620    37.4990    17.4500 ha         1 O5B       0.133000
     55 H11         71.5120    37.8430    13.1960 ha         1 O5B       0.134000
     56 H12         69.1850    37.3200    12.7480 ha         1 O5B       0.140000
     57 H13         69.9840    34.5580    13.6210 ha         1 O5B       0.146000
     58 H14         71.3720    33.0180    14.9880 ha         1 O5B       0.140000
     59 H15         67.8260    31.4110    16.8340 ha         1 O5B       0.140000
     60 H16         66.4060    32.9420    15.4870 ha         1 O5B       0.146000
     61 H17         62.4820    37.1480    14.2920 hc         1 O5B       0.055700
     62 H18         61.0400    35.7700    16.6180 hc         1 O5B       0.030450
     63 H19         61.4220    35.0310    15.0640 hc         1 O5B       0.030450
     64 H20         59.9630    36.6320    13.8660 hc         1 O5B       0.044200
     65 H21         59.0450    35.8660    15.1570 hc         1 O5B       0.044200
     66 H22         59.4180    37.8340    16.6420 hc         1 O5B       0.026700
     67 H23         60.8540    39.1420    14.2600 hc         1 O5B       0.044200
     68 H24         60.4910    39.9180    15.7970 hc         1 O5B       0.044200
     69 H25         61.9700    38.3530    17.0200 hc         1 O5B       0.030450
     70 H26         62.8670    39.0900    15.6990 hc         1 O5B       0.030450
@<TRIPOS>BOND
     1     1     2 1   
     2     1     5 1   
     3     1    45 1   
     4     1    46 1   
     5     2     3 1   
     6     2    47 1   
     7     2    48 1   
     8     3     4 1   
     9     3    34 1   
    10     4     5 1   
    11     4     6 1   
    12     4    49 1   
    13     5     9 1   
    14     5    15 1   
    15     6     7 1   
    16     6    50 1   
    17     6    51 1   
    18     7     8 1   
    19     7    52 1   
    20     7    53 1   
    21     8     9 ar  
    22     8    10 ar  
    23     9    13 ar  
    24    10    11 ar  
    25    10    54 1   
    26    11    12 ar  
    27    11    14 1   
    28    12    13 ar  
    29    12    55 1   
    30    13    56 1   
    31    14    25 1   
    32    14    26 1   
    33    14    27 1   
    34    15    16 1   
    35    15    23 2   
    36    15    24 2   
    37    16    17 ar  
    38    16    20 ar  
    39    17    18 ar  
    40    17    57 1   
    41    18    21 ar  
    42    18    58 1   
    43    19    20 ar  
    44    19    21 ar  
    45    19    59 1   
    46    20    60 1   
    47    21    22 1   
    48    25    31 1   
    49    25    32 1   
    50    25    33 1   
    51    26    28 1   
    52    26    29 1   
    53    26    30 1   
    54    34    35 1   
    55    34    36 2   
    56    35    37 1   
    57    35    41 1   
    58    35    61 1   
    59    37    38 1   
    60    37    62 1   
    61    37    63 1   
    62    38    39 1   
    63    38    64 1   
    64    38    65 1   
    65    39    40 1   
    66    39    42 1   
    67    39    66 1   
    68    40    41 1   
    69    40    67 1   
    70    40    68 1   
    71    41    69 1   
    72    41    70 1   
    73    42    43 1   
    74    42    44 1   
@<TRIPOS>SUBSTRUCTURE
     1 O5B         1 TEMP              0 ****  ****    0 ROOT
