@<TRIPOS>MOLECULE
O5C
   36    38     1     0     0
SMALL
abcg2


@<TRIPOS>ATOM
      1 C4           7.4730    -2.6790    18.7820 c3         1 O5C      -0.186100
      2 C5           6.9040    -4.2380    22.3020 cc         1 O5C      -0.018000
      3 C6           6.0850    -5.3760    22.3440 cc         1 O5C      -0.095000
      4 C7           5.9150    -6.0490    23.5290 cd         1 O5C      -0.086000
      5 C8           6.5690    -5.6020    24.6940 cd         1 O5C      -0.147000
      6 C10          8.3330    -2.7030    23.1950 cc         1 O5C      -0.273300
      7 C13         11.2290    -1.8330    22.9650 ca         1 O5C      -0.041500
      8 C15         12.6810     0.0110    23.3460 ca         1 O5C       0.188000
      9 C17         10.6400    -0.1210    24.5600 ca         1 O5C      -0.041500
     10 F           13.8300     0.6690    23.0670 f          1 O5C      -0.178000
     11 C14         12.4210    -1.1780    22.6890 ca         1 O5C      -0.161000
     12 C16         11.8160     0.5580    24.2800 ca         1 O5C      -0.161000
     13 C12         10.3280    -1.3090    23.8940 ca         1 O5C      -0.175600
     14 C11          9.0730    -2.0290    24.2480 c          1 O5C       0.623900
     15 O1           8.7110    -2.0660    25.4280 o          1 O5C      -0.553100
     16 C1           8.1820    -2.3980    21.8380 cd         1 O5C       0.025800
     17 C            8.7400    -1.1850    21.1610 c3         1 O5C      -0.045900
     18 N            7.5240    -3.8210    23.4710 na         1 O5C       0.191100
     19 C9           7.3660    -4.4950    24.6480 cc         1 O5C      -0.100000
     20 C2           7.3030    -3.3530    21.2630 cd         1 O5C      -0.283200
     21 C3           6.8540    -3.5070    19.8840 c          1 O5C       0.609300
     22 O            5.9850    -4.3310    19.5900 o          1 O5C      -0.566100
     23 H1           7.1790    -3.1060    17.8250 hc         1 O5C       0.058700
     24 H2           7.1100    -1.6500    18.8310 hc         1 O5C       0.058700
     25 H3           8.5590    -2.6480    18.8560 hc         1 O5C       0.058700
     26 H4           5.6050    -5.6920    21.4330 ha         1 O5C       0.164000
     27 H5           5.2800    -6.9240    23.5700 ha         1 O5C       0.128000
     28 H6           6.4490    -6.1190    25.6350 ha         1 O5C       0.136000
     29 H7          11.0020    -2.7620    22.4590 ha         1 O5C       0.131500
     30 H8           9.9470     0.2770    25.2890 ha         1 O5C       0.131500
     31 H9          13.1350    -1.5750    21.9800 ha         1 O5C       0.137500
     32 H10         12.0650     1.4900    24.7700 ha         1 O5C       0.137500
     33 H11          7.9770    -0.7100    20.5480 hc         1 O5C       0.052367
     34 H12          9.0910    -0.4550    21.8830 hc         1 O5C       0.052367
     35 H13          9.5770    -1.4370    20.5070 hc         1 O5C       0.052367
     36 H14          7.8860    -4.0930    25.5000 h4         1 O5C       0.175000
@<TRIPOS>BOND
     1     1    21 1   
     2     1    23 1   
     3     1    24 1   
     4     1    25 1   
     5     2     3 1   
     6     2    18 1   
     7     2    20 2   
     8     3     4 2   
     9     3    26 1   
    10     4     5 1   
    11     4    27 1   
    12     5    19 2   
    13     5    28 1   
    14     6    14 1   
    15     6    16 2   
    16     6    18 1   
    17     7    11 ar  
    18     7    13 ar  
    19     7    29 1   
    20     8    10 1   
    21     8    11 ar  
    22     8    12 ar  
    23     9    12 ar  
    24     9    13 ar  
    25     9    30 1   
    26    11    31 1   
    27    12    32 1   
    28    13    14 1   
    29    14    15 2   
    30    16    17 1   
    31    16    20 1   
    32    17    33 1   
    33    17    34 1   
    34    17    35 1   
    35    18    19 1   
    36    19    36 1   
    37    20    21 1   
    38    21    22 2   
@<TRIPOS>SUBSTRUCTURE
     1 O5C         1 TEMP              0 ****  ****    0 ROOT
