@<TRIPOS>MOLECULE
O5C
   36    38     1     0     0
SMALL
No Charge or Current Charge


@<TRIPOS>ATOM
      1 C4           7.4840    -2.6760    18.7490 c3         1 O5C      -0.186100
      2 C5           6.9330    -4.2780    22.2940 cc         1 O5C      -0.018000
      3 C6           6.1790    -5.4900    22.2780 cc         1 O5C      -0.095000
      4 C7           6.0100    -6.1490    23.4710 cd         1 O5C      -0.086000
      5 C8           6.6270    -5.6140    24.6620 cd         1 O5C      -0.147000
      6 C10          8.2440    -2.6460    23.2680 cc         1 O5C      -0.273300
      7 C13         11.1070    -1.8430    22.9670 ca         1 O5C      -0.041500
      8 C15         12.8100    -0.1430    23.3140 ca         1 O5C       0.188000
      9 C17         10.7370    -0.0540    24.5800 ca         1 O5C      -0.041500
     10 F           14.0250     0.3720    23.0220 f          1 O5C      -0.178000
     11 C14         12.3700    -1.3040    22.6640 ca         1 O5C      -0.161000
     12 C16         12.0010     0.4800    24.2730 ca         1 O5C      -0.161000
     13 C12         10.2700    -1.2120    23.9180 ca         1 O5C      -0.175600
     14 C11          8.9130    -1.7800    24.2730 c          1 O5C       0.623900
     15 O1           8.4660    -1.6390    25.4050 o          1 O5C      -0.553100
     16 C1           8.0770    -2.3500    21.9170 cd         1 O5C       0.025800
     17 C            8.5590    -1.0800    21.2440 c3         1 O5C      -0.045900
     18 N            7.4350    -3.7520    23.4550 na         1 O5C       0.191100
     19 C9           7.3790    -4.4380    24.6780 cc         1 O5C      -0.100000
     20 C2           7.3050    -3.4050    21.2870 cd         1 O5C      -0.283200
     21 C3           6.9300    -3.5960    19.8370 c          1 O5C       0.609300
     22 O            6.1920    -4.5020    19.4760 o          1 O5C      -0.566100
     23 H1           7.2920    -3.0660    17.7430 hc         1 O5C       0.058700
     24 H2           7.0250    -1.6890    18.8530 hc         1 O5C       0.058700
     25 H3           8.5520    -2.5010    18.9120 hc         1 O5C       0.058700
     26 H4           5.7560    -5.8930    21.3660 ha         1 O5C       0.164000
     27 H5           5.4420    -7.0740    23.5110 ha         1 O5C       0.128000
     28 H6           6.5160    -6.1660    25.5910 ha         1 O5C       0.136000
     29 H7          10.7910    -2.7570    22.4670 ha         1 O5C       0.131500
     30 H8          10.1170     0.4380    25.3270 ha         1 O5C       0.131500
     31 H9          13.0090    -1.7880    21.9300 ha         1 O5C       0.137500
     32 H10         12.3520     1.3760    24.7790 ha         1 O5C       0.137500
     33 H11          7.7790    -0.6390    20.6170 hc         1 O5C       0.052367
     34 H12          8.8120    -0.2980    21.9660 hc         1 O5C       0.052367
     35 H13          9.4480    -1.2600    20.6280 hc         1 O5C       0.052367
     36 H14          7.8800    -4.0260    25.5410 h4         1 O5C       0.175000
@<TRIPOS>BOND
     1     1    21 1   
     2     1    23 1   
     3     1    24 1   
     4     1    25 1   
     5     2     3 1   
     6     2    18 1   
     7     2    20 2   
     8     3     4 2   
     9     3    26 1   
    10     4     5 1   
    11     4    27 1   
    12     5    19 2   
    13     5    28 1   
    14     6    14 1   
    15     6    16 2   
    16     6    18 1   
    17     7    11 ar  
    18     7    13 ar  
    19     7    29 1   
    20     8    10 1   
    21     8    11 ar  
    22     8    12 ar  
    23     9    12 ar  
    24     9    13 ar  
    25     9    30 1   
    26    11    31 1   
    27    12    32 1   
    28    13    14 1   
    29    14    15 2   
    30    16    17 1   
    31    16    20 1   
    32    17    33 1   
    33    17    34 1   
    34    17    35 1   
    35    18    19 1   
    36    19    36 1   
    37    20    21 1   
    38    21    22 2   
@<TRIPOS>SUBSTRUCTURE
     1 O5C         1 TEMP              0 ****  ****    0 ROOT
