@<TRIPOS>MOLECULE
O5D
   55    58     1     0     0
SMALL
No Charge or Current Charge


@<TRIPOS>ATOM
      1 C3          -1.3730    -0.5400    -0.0900 cc         1 O5D      -0.232600
      2 C11         -6.5070     1.3880    -1.3480 ca         1 O5D       0.275900
      3 C12         -7.5990     1.1220    -0.4750 ca         1 O5D       0.242000
      4 C13         -7.3360     0.3710     0.6940 ca         1 O5D      -0.110300
      5 C14         -6.0130    -0.0650     0.9190 ca         1 O5D      -0.095000
      6 C15          0.7470    -2.6310     0.4080 c6         1 O5D       0.048000
      7 C16          1.5870    -3.6620    -0.3920 c6         1 O5D       0.124600
      8 C18          3.2460    -1.9940    -0.9170 c6         1 O5D       0.125600
      9 C19          2.4780    -0.9140    -0.1020 c6         1 O5D       0.070700
     10 C20          2.8850     0.5310    -0.5350 c3         1 O5D      -0.016100
     11 C21          4.3440     0.8800    -0.2020 ca         1 O5D      -0.110300
     12 C22          4.6920     1.2310     1.1260 ca         1 O5D       0.150100
     13 C23          6.0300     1.5510     1.4450 ca         1 O5D      -0.199000
     14 C24          7.0220     1.5240     0.4550 ca         1 O5D      -0.062000
     15 C25          6.6840     1.1760    -0.8600 ca         1 O5D      -0.141000
     16 C26          5.3590     0.8560    -1.1910 ca         1 O5D       0.157000
     17 C28         -8.4320     0.0270     1.7010 c3         1 O5D      -0.044800
     18 C31          3.9510     1.5780     3.4630 c3         1 O5D       0.147900
     19 C4          -2.4850     0.0490    -0.6290 cd         1 O5D      -0.126000
     20 C5          -3.5850    -0.2080     0.2220 cd         1 O5D       0.197000
     21 C6          -0.0090    -0.4530    -0.6840 c          1 O5D       0.630700
     22 C9          -4.9870     0.2460    -0.0040 ca         1 O5D       0.275000
     23 N1          -3.2190    -0.9140     1.2840 nc         1 O5D      -0.512800
     24 N10         -5.2360     0.9670    -1.1280 nb         1 O5D      -0.635000
     25 N2          -1.8590    -1.1030     1.0930 na         1 O5D       0.016800
     26 N7           1.0040    -1.2340    -0.0650 n          1 O5D      -0.400800
     27 O17          2.9840    -3.3030    -0.3650 os         1 O5D      -0.446000
     28 O30          3.6960     1.2470     2.0860 os         1 O5D      -0.342100
     29 O8           0.2180     0.2660    -1.6470 o          1 O5D      -0.557100
     30 Cl27         5.0220     0.4120    -2.8670 cl         1 O5D      -0.199000
     31 H34         -6.6620     1.9630    -2.2600 h4         1 O5D       0.016100
     32 H35         -5.7800    -0.6440     1.8080 ha         1 O5D       0.134000
     33 H36         -0.3050    -2.9100     0.2760 h1         1 O5D       0.066700
     34 H37          0.9910    -2.7080     1.4780 h1         1 O5D       0.066700
     35 H39          1.4640    -4.6650     0.0420 h1         1 O5D       0.055200
     36 H38          1.2430    -3.6970    -1.4360 h1         1 O5D       0.055200
     37 H40          2.9380    -1.9680    -1.9720 h1         1 O5D       0.065200
     38 H41          4.3280    -1.8080    -0.8700 h1         1 O5D       0.065200
     39 H42          2.8270    -1.0100     0.9360 h1         1 O5D       0.069700
     40 H44          2.6870     0.6760    -1.6010 hc         1 O5D       0.079700
     41 H43          2.2300     1.2520    -0.0310 hc         1 O5D       0.079700
     42 H45          6.3210     1.8230     2.4560 ha         1 O5D       0.122000
     43 H46          8.0520     1.7710     0.7050 ha         1 O5D       0.118000
     44 H47          7.4540     1.1510    -1.6270 ha         1 O5D       0.133000
     45 H50         -9.2220    -0.5760     1.2360 hc         1 O5D       0.043700
     46 H49         -8.0400    -0.5490     2.5480 hc         1 O5D       0.043700
     47 H48         -8.8940     0.9340     2.1090 hc         1 O5D       0.043700
     48 H55          3.0220     1.5250     4.0440 h1         1 O5D       0.043033
     49 H53          4.6690     0.8760     3.9060 h1         1 O5D       0.043033
     50 H54          4.3500     2.5960     3.5530 h1         1 O5D       0.043033
     51 H33         -2.5240     0.6160    -1.5540 ha         1 O5D       0.169000
     52 H32         -1.3030    -1.5980     1.7900 hn         1 O5D       0.379000
     53 H51         -9.0950     2.0420    -1.6290 hn         1 O5D       0.450500
     54 H52         -9.6630     1.3020    -0.1520 hn         1 O5D       0.450500
     55 N29         -8.8830     1.5760    -0.7470 nv         1 O5D      -1.067000
@<TRIPOS>BOND
     1     1    19 2   
     2     1    21 1   
     3     1    25 1   
     4     2     3 ar  
     5     2    24 ar  
     6     2    31 1   
     7     3     4 ar  
     8     3    55 1   
     9     4     5 ar  
    10     4    17 1   
    11     5    22 ar  
    12     5    32 1   
    13     6     7 1   
    14     6    26 1   
    15     6    33 1   
    16     6    34 1   
    17     7    27 1   
    18     7    35 1   
    19     7    36 1   
    20     8     9 1   
    21     8    27 1   
    22     8    37 1   
    23     8    38 1   
    24     9    10 1   
    25     9    26 1   
    26     9    39 1   
    27    10    11 1   
    28    10    40 1   
    29    10    41 1   
    30    11    12 ar  
    31    11    16 ar  
    32    12    13 ar  
    33    12    28 1   
    34    13    14 ar  
    35    13    42 1   
    36    14    15 ar  
    37    14    43 1   
    38    15    16 ar  
    39    15    44 1   
    40    16    30 1   
    41    17    45 1   
    42    17    46 1   
    43    17    47 1   
    44    18    28 1   
    45    18    48 1   
    46    18    49 1   
    47    18    50 1   
    48    19    20 1   
    49    19    51 1   
    50    20    22 1   
    51    20    23 2   
    52    21    26 1   
    53    21    29 2   
    54    22    24 ar  
    55    23    25 1   
    56    25    52 1   
    57    53    55 1   
    58    54    55 1   
@<TRIPOS>SUBSTRUCTURE
     1 O5D         1 TEMP              0 ****  ****    0 ROOT
