@<TRIPOS>MOLECULE
O5D
   55    58     1     0     0
SMALL
bcc


@<TRIPOS>ATOM
      1 C3          -1.3290     0.0340    -0.0980 cc         1 O5D      -0.181900
      2 C11         -6.6470     0.2810    -1.6150 ca         1 O5D       0.341200
      3 C12         -7.6470     0.2780    -0.6380 ca         1 O5D       0.038300
      4 C13         -7.2390     0.2120     0.7060 ca         1 O5D      -0.110300
      5 C14         -5.8800     0.1560     0.9640 ca         1 O5D      -0.178300
      6 C15          0.6060    -2.0570     0.5080 c6         1 O5D       0.048000
      7 C16          1.0310    -3.0270    -0.5850 c6         1 O5D       0.101400
      8 C18          2.7760    -1.5990    -1.2520 c6         1 O5D       0.102400
      9 C19          2.4080    -0.6170    -0.1440 c6         1 O5D       0.070700
     10 C20          2.9640     0.7970    -0.3510 c3         1 O5D      -0.016100
     11 C21          4.4380     0.8470    -0.0510 ca         1 O5D      -0.110300
     12 C22          4.8760     0.8940     1.2870 ca         1 O5D       0.150100
     13 C23          6.2300     0.9440     1.6020 ca         1 O5D      -0.217000
     14 C24          7.1710     0.9510     0.5810 ca         1 O5D      -0.080000
     15 C25          6.7800     0.9110    -0.7430 ca         1 O5D      -0.159000
     16 C26          5.4220     0.8610    -1.0320 ca         1 O5D       0.065400
     17 C28         -8.2530     0.1960     1.8060 c3         1 O5D      -0.044800
     18 C31          4.2510     0.9280     3.5800 c3         1 O5D       0.124700
     19 C4          -2.4950     0.1210    -0.8210 cd         1 O5D      -0.209300
     20 C5          -3.5160     0.1040     0.1490 cd         1 O5D       0.262300
     21 C6           0.0740     0.0760    -0.5760 c          1 O5D       0.697700
     22 C9          -4.9600     0.1620    -0.0830 ca         1 O5D       0.340300
     23 N1          -3.0020     0.0300     1.3700 nc         1 O5D      -0.512800
     24 N10         -5.3540     0.2230    -1.3510 nb         1 O5D      -0.635000
     25 N2          -1.6940    -0.0210     1.2000 na         1 O5D       0.016400
     26 N7           0.9630    -0.6960     0.1020 n          1 O5D      -0.467800
     27 O17          2.3990    -2.9130    -0.8970 os         1 O5D      -0.399600
     28 O30          3.9000     0.8860     2.2110 os         1 O5D      -0.318900
     29 O8           0.3590     0.8250    -1.4940 o          1 O5D      -0.557100
     30 CL27         4.9730     0.8110    -2.7130 cl         1 O5D      -0.107400
     31 H34         -6.9270     0.3320    -2.6630 h4         1 O5D       0.016100
     32 H35         -5.5320     0.1030     1.9880 ha         1 O5D       0.152000
     33 H36         -0.4640    -2.1620     0.6740 h1         1 O5D       0.066700
     34 H37          1.1100    -2.2880     1.4500 h1         1 O5D       0.066700
     35 H39          0.8580    -4.0530    -0.2550 h1         1 O5D       0.055200
     36 H38          0.4090    -2.8530    -1.4750 h1         1 O5D       0.055200
     37 H40          2.3030    -1.2890    -2.1940 h1         1 O5D       0.065200
     38 H41          3.8550    -1.6160    -1.4060 h1         1 O5D       0.065200
     39 H42          2.8520    -1.0000     0.7810 h1         1 O5D       0.069700
     40 H44          2.7750     1.1490    -1.3610 hc         1 O5D       0.079700
     41 H43          2.4430     1.4820     0.3200 hc         1 O5D       0.079700
     42 H45          6.5670     0.9800     2.6290 ha         1 O5D       0.140000
     43 H46          8.2230     0.9900     0.8270 ha         1 O5D       0.136000
     44 H47          7.5110     0.9180    -1.5390 ha         1 O5D       0.151000
     45 H50         -8.9500    -0.6360     1.6870 hc         1 O5D       0.043700
     46 H49         -7.7790     0.1020     2.7810 hc         1 O5D       0.043700
     47 H48         -8.8480     1.1120     1.8160 hc         1 O5D       0.043700
     48 H55          3.3170     0.9110     4.1360 h1         1 O5D       0.043033
     49 H53          4.8520     0.0640     3.8740 h1         1 O5D       0.043033
     50 H54          4.7940     1.8420     3.8330 h1         1 O5D       0.043033
     51 H33         -2.5980     0.1730    -1.8910 ha         1 O5D       0.187000
     52 H32         -1.0870    -0.0340     2.0060 hn         1 O5D       0.328700
     53 H51         -9.1820     0.5680    -1.9280 hn         1 O5D       0.395300
     54 H52         -9.6150     0.6960    -0.3250 hn         1 O5D       0.395300
     55 N29         -8.9780     0.2790    -0.9850 nv         1 O5D      -0.818200
@<TRIPOS>BOND
     1     1    19 2   
     2     1    21 1   
     3     1    25 1   
     4     2     3 ar  
     5     2    24 ar  
     6     2    31 1   
     7     3     4 ar  
     8     3    55 1   
     9     4     5 ar  
    10     4    17 1   
    11     5    22 ar  
    12     5    32 1   
    13     6     7 1   
    14     6    26 1   
    15     6    33 1   
    16     6    34 1   
    17     7    27 1   
    18     7    35 1   
    19     7    36 1   
    20     8     9 1   
    21     8    27 1   
    22     8    37 1   
    23     8    38 1   
    24     9    10 1   
    25     9    26 1   
    26     9    39 1   
    27    10    11 1   
    28    10    40 1   
    29    10    41 1   
    30    11    12 ar  
    31    11    16 ar  
    32    12    13 ar  
    33    12    28 1   
    34    13    14 ar  
    35    13    42 1   
    36    14    15 ar  
    37    14    43 1   
    38    15    16 ar  
    39    15    44 1   
    40    16    30 1   
    41    17    45 1   
    42    17    46 1   
    43    17    47 1   
    44    18    28 1   
    45    18    48 1   
    46    18    49 1   
    47    18    50 1   
    48    19    20 1   
    49    19    51 1   
    50    20    22 1   
    51    20    23 2   
    52    21    26 1   
    53    21    29 2   
    54    22    24 ar  
    55    23    25 1   
    56    25    52 1   
    57    53    55 1   
    58    54    55 1   
@<TRIPOS>SUBSTRUCTURE
     1 O5D         1 TEMP              0 ****  ****    0 ROOT
