@<TRIPOS>MOLECULE
O5E
   36    38     1     0     0
SMALL
abcg2


@<TRIPOS>ATOM
      1 C02          1.1300     0.7510     0.1340 c          1 O5E       0.617100
      2 C04          3.4710     0.4450    -0.3780 cc         1 O5E       0.518400
      3 C09         -0.2620     0.3780    -0.3590 c3         1 O5E       0.216800
      4 C11         -2.5580     1.1690     0.0150 ca         1 O5E       0.314000
      5 C12         -3.4520     1.8010     0.8900 ca         1 O5E      -0.175000
      6 C13         -4.8150     1.7730     0.6530 ca         1 O5E      -0.070000
      7 C14         -5.3300     1.1140    -0.4580 ca         1 O5E      -0.152000
      8 C15         -4.4500     0.4820    -1.3240 ca         1 O5E      -0.070000
      9 C16         -3.0800     0.5010    -1.0980 ca         1 O5E      -0.175000
     10 C17         -0.4650    -1.1040    -0.0650 ca         1 O5E      -0.141300
     11 C18         -0.7710    -1.5280     1.2240 ca         1 O5E      -0.092500
     12 C19         -0.9280    -2.8790     1.4940 ca         1 O5E      -0.103500
     13 C20         -0.7780    -3.8170     0.4800 ca         1 O5E      -0.093000
     14 C21         -0.4750    -3.3980    -0.8070 ca         1 O5E      -0.103500
     15 C22         -0.3200    -2.0450    -1.0770 ca         1 O5E      -0.092500
     16 N03          2.1420     0.3050    -0.6610 ns         1 O5E      -0.469400
     17 N05          4.0170     1.0380     0.6820 na         1 O5E      -0.223700
     18 N06          5.3390     0.9540     0.5660 nc         1 O5E      -0.196800
     19 N07          5.5700     0.3370    -0.5190 nd         1 O5E      -0.028000
     20 N08          4.4390    -0.0000    -1.1420 nd         1 O5E      -0.433000
     21 N10         -1.2050     1.2570     0.2590 nu         1 O5E      -0.956200
     22 O01          1.3290     1.3540     1.1670 o          1 O5E      -0.585100
     23 H1          -0.2810     0.5170    -1.4480 h1         1 O5E       0.079700
     24 H2          -3.0680     2.3150     1.7640 ha         1 O5E       0.111000
     25 H3          -5.4800     2.2700     1.3480 ha         1 O5E       0.110500
     26 H4          -6.3960     1.0920    -0.6420 ha         1 O5E       0.115000
     27 H5          -4.8290    -0.0400    -2.1940 ha         1 O5E       0.110500
     28 H6          -2.4310    -0.0110    -1.7960 ha         1 O5E       0.111000
     29 H7          -0.8940    -0.8060     2.0220 ha         1 O5E       0.114000
     30 H8          -1.1690    -3.2010     2.4990 ha         1 O5E       0.120000
     31 H9          -0.9030    -4.8710     0.6930 ha         1 O5E       0.119000
     32 H10         -0.3660    -4.1210    -1.6040 ha         1 O5E       0.120000
     33 H11         -0.0980    -1.7220    -2.0880 ha         1 O5E       0.114000
     34 H12          1.9310    -0.1710    -1.5260 hn         1 O5E       0.363500
     35 H13          3.5770     1.4930     1.4700 hn         1 O5E       0.412000
     36 H14         -0.9450     1.6020     1.1710 hn         1 O5E       0.494000
@<TRIPOS>BOND
     1     1     3 1   
     2     1    16 1   
     3     1    22 2   
     4     2    16 1   
     5     2    17 1   
     6     2    20 2   
     7     3    10 1   
     8     3    21 1   
     9     3    23 1   
    10     4     5 ar  
    11     4     9 ar  
    12     4    21 1   
    13     5     6 ar  
    14     5    24 1   
    15     6     7 ar  
    16     6    25 1   
    17     7     8 ar  
    18     7    26 1   
    19     8     9 ar  
    20     8    27 1   
    21     9    28 1   
    22    10    11 ar  
    23    10    15 ar  
    24    11    12 ar  
    25    11    29 1   
    26    12    13 ar  
    27    12    30 1   
    28    13    14 ar  
    29    13    31 1   
    30    14    15 ar  
    31    14    32 1   
    32    15    33 1   
    33    16    34 1   
    34    17    18 1   
    35    17    35 1   
    36    18    19 2   
    37    19    20 1   
    38    21    36 1   
@<TRIPOS>SUBSTRUCTURE
     1 O5E         1 TEMP              0 ****  ****    0 ROOT
