@<TRIPOS>MOLECULE
O5E
   36    38     1     0     0
SMALL
No Charge or Current Charge


@<TRIPOS>ATOM
      1 C02          1.2750     0.8360     0.1400 c          1 O5E       0.617100
      2 C04          3.6590     0.3880    -0.2650 cc         1 O5E       0.518400
      3 C09         -0.1590     0.4410    -0.3800 c3         1 O5E       0.216800
      4 C11         -2.6210     1.1650    -0.0670 ca         1 O5E       0.314000
      5 C12         -3.5240     1.5920     0.9200 ca         1 O5E      -0.175000
      6 C13         -4.9100     1.4600     0.7220 ca         1 O5E      -0.070000
      7 C14         -5.3950     0.9020    -0.4730 ca         1 O5E      -0.152000
      8 C15         -4.4980     0.4800    -1.4680 ca         1 O5E      -0.070000
      9 C16         -3.1130     0.6140    -1.2640 ca         1 O5E      -0.175000
     10 C17         -0.4600    -1.0280    -0.0680 ca         1 O5E      -0.141300
     11 C18         -0.5560    -1.4730     1.2680 ca         1 O5E      -0.092500
     12 C19         -0.8250    -2.8230     1.5510 ca         1 O5E      -0.103500
     13 C20         -1.0000    -3.7410     0.5020 ca         1 O5E      -0.093000
     14 C21         -0.9060    -3.3070    -0.8310 ca         1 O5E      -0.103500
     15 C22         -0.6370    -1.9570    -1.1160 ca         1 O5E      -0.092500
     16 N03          2.3230     0.2360    -0.5180 ns         1 O5E      -0.469400
     17 N05          4.2580     1.1650     0.6740 na         1 O5E      -0.223700
     18 N06          5.6070     1.0400     0.6030 nc         1 O5E      -0.196800
     19 N07          5.7990     0.1940    -0.3730 nd         1 O5E      -0.028000
     20 N08          4.6100    -0.2250    -0.9270 nd         1 O5E      -0.433000
     21 N10         -1.2530     1.3110     0.1580 nu         1 O5E      -0.956200
     22 O01          1.4590     1.6130     1.0730 o          1 O5E      -0.585100
     23 H1          -0.1190     0.5630    -1.4720 h1         1 O5E       0.079700
     24 H2          -3.1540     2.0220     1.8470 ha         1 O5E       0.111000
     25 H3          -5.6050     1.7890     1.4920 ha         1 O5E       0.110500
     26 H4          -6.4670     0.7990    -0.6290 ha         1 O5E       0.115000
     27 H5          -4.8730     0.0520    -2.3950 ha         1 O5E       0.110500
     28 H6          -2.4280     0.2920    -2.0410 ha         1 O5E       0.111000
     29 H7          -0.4250    -0.7700     2.0880 ha         1 O5E       0.114000
     30 H8          -0.8980    -3.1570     2.5830 ha         1 O5E       0.120000
     31 H9          -1.2090    -4.7860     0.7210 ha         1 O5E       0.119000
     32 H10         -1.0430    -4.0170    -1.6440 ha         1 O5E       0.120000
     33 H11         -0.5690    -1.6360    -2.1530 ha         1 O5E       0.114000
     34 H12          2.0720    -0.4020    -1.2590 hn         1 O5E       0.363500
     35 H13          3.7880     1.7620     1.3440 hn         1 O5E       0.412000
     36 H14         -1.0080     1.8380     1.0000 hn         1 O5E       0.494000
@<TRIPOS>BOND
     1     1     3 1   
     2     1    16 1   
     3     1    22 2   
     4     2    16 1   
     5     2    17 1   
     6     2    20 2   
     7     3    10 1   
     8     3    21 1   
     9     3    23 1   
    10     4     5 ar  
    11     4     9 ar  
    12     4    21 1   
    13     5     6 ar  
    14     5    24 1   
    15     6     7 ar  
    16     6    25 1   
    17     7     8 ar  
    18     7    26 1   
    19     8     9 ar  
    20     8    27 1   
    21     9    28 1   
    22    10    11 ar  
    23    10    15 ar  
    24    11    12 ar  
    25    11    29 1   
    26    12    13 ar  
    27    12    30 1   
    28    13    14 ar  
    29    13    31 1   
    30    14    15 ar  
    31    14    32 1   
    32    15    33 1   
    33    16    34 1   
    34    17    18 1   
    35    17    35 1   
    36    18    19 2   
    37    19    20 1   
    38    21    36 1   
@<TRIPOS>SUBSTRUCTURE
     1 O5E         1 TEMP              0 ****  ****    0 ROOT
