@<TRIPOS>MOLECULE
O5F
   72    77     1     0     0
SMALL
abcg2


@<TRIPOS>ATOM
      1 N1          21.6140    -4.8850    25.4220 na         1 O5F      -0.169600
      2 C7          22.2110    -3.3020    32.9480 ca         1 O5F      -0.102000
      3 C8          22.3590    -2.2020    32.0730 ca         1 O5F      -0.104000
      4 N2          19.7200    -6.7960    29.4370 ns         1 O5F      -0.509900
      5 C9          23.1840    -2.2920    30.9810 ca         1 O5F      -0.101000
      6 O1          24.4220    -6.3040    26.5030 o          1 O5F      -0.612100
      7 C1          26.2840    -4.9310    28.0850 c3         1 O5F       0.158000
      8 C5          23.7550    -4.5930    31.5980 ca         1 O5F      -0.040000
      9 C6          22.8970    -4.4680    32.7180 ca         1 O5F      -0.103000
     10 N3          17.0270    -3.8190    25.7270 nb         1 O5F      -0.658000
     11 C4          24.4580    -5.7870    31.3110 ca         1 O5F      -0.103000
     12 C3          25.2500    -5.8830    30.1950 ca         1 O5F      -0.091000
     13 C2          25.3880    -4.7940    29.3040 ca         1 O5F      -0.099300
     14 N4          20.8600    -3.9250    23.5360 nc         1 O5F      -0.563100
     15 N           25.6330    -4.4280    26.8790 ns         1 O5F      -0.499900
     16 C           27.6190    -4.2140    28.2770 c3         1 O5F      -0.100100
     17 O           18.7330    -4.8000    29.0720 o          1 O5F      -0.609100
     18 C10         23.8980    -3.4850    30.7090 ca         1 O5F      -0.042000
     19 C11         24.7230    -3.6220    29.5700 ca         1 O5F      -0.090000
     20 C12         24.7220    -5.1470    26.1980 c          1 O5F       0.616700
     21 C13         24.1170    -4.4620    25.0140 ca         1 O5F      -0.152600
     22 C14         24.9500    -3.8590    24.0720 ca         1 O5F      -0.075000
     23 C15         24.4570    -3.2820    22.8950 ca         1 O5F      -0.145000
     24 C16         23.0990    -3.2710    22.6240 ca         1 O5F      -0.027000
     25 C17         22.2410    -3.8460    23.5600 ca         1 O5F       0.058400
     26 C18         22.7400    -4.4460    24.7420 ca         1 O5F      -0.029200
     27 C19         21.5150    -5.3830    26.7920 c3         1 O5F       0.055600
     28 C20         21.4440    -4.2620    27.8260 c3         1 O5F      -0.086400
     29 C21         21.1340    -4.8300    29.2150 c3         1 O5F      -0.154400
     30 C22         19.7580    -5.4670    29.2440 c          1 O5F       0.584100
     31 C23         18.4810    -7.5530    29.4240 c3         1 O5F       0.095300
     32 C24         20.5260    -4.5370    24.6500 cd         1 O5F       0.473400
     33 C25         19.1370    -4.7910    25.0730 ca         1 O5F      -0.160900
     34 C26         18.6120    -6.1050    25.2280 ca         1 O5F       0.012000
     35 C27         19.3400    -7.2890    24.9680 ca         1 O5F      -0.110000
     36 C28         18.7540    -8.5160    25.1580 ca         1 O5F      -0.090000
     37 C29         17.4200    -8.6230    25.6070 ca         1 O5F      -0.120000
     38 C30         16.6850    -7.4920    25.8500 ca         1 O5F      -0.079000
     39 C31         17.2630    -6.2150    25.6650 ca         1 O5F      -0.102000
     40 C32         16.5340    -5.0250    25.8950 ca         1 O5F       0.386900
     41 C33         18.3170    -3.7150    25.3220 ca         1 O5F       0.377900
     42 H2          21.8120    -1.2880    32.2660 ha         1 O5F       0.118000
     43 H3          20.5870    -7.2920    29.5620 hn         1 O5F       0.314500
     44 H4          23.2930    -1.4550    30.3020 ha         1 O5F       0.115000
     45 H5          26.4690    -5.9920    27.9220 h1         1 O5F       0.081700
     46 H6          22.7850    -5.3130    33.3860 ha         1 O5F       0.114000
     47 H7          24.3490    -6.6320    31.9800 ha         1 O5F       0.116000
     48 H8          25.7720    -6.8080    29.9800 ha         1 O5F       0.118000
     49 H9          25.7620    -3.4590    26.6350 hn         1 O5F       0.317500
     50 H10         28.1150    -4.5890    29.1720 hc         1 O5F       0.047033
     51 H11         28.2700    -4.3810    27.4170 hc         1 O5F       0.047033
     52 H12         27.4640    -3.1390    28.3980 hc         1 O5F       0.047033
     53 H13         24.8070    -2.7800    28.8930 ha         1 O5F       0.110000
     54 H14         26.0180    -3.8660    24.2450 ha         1 O5F       0.114000
     55 H15         25.1530    -2.8450    22.1910 ha         1 O5F       0.119000
     56 H16         22.7040    -2.8260    21.7190 ha         1 O5F       0.133000
     57 H17         20.6190    -5.9940    26.8460 h1         1 O5F       0.082700
     58 H18         22.3640    -6.0320    26.9810 h1         1 O5F       0.082700
     59 H19         22.3900    -3.7200    27.8600 hc         1 O5F       0.061700
     60 H20         20.6650    -3.5510    27.5420 hc         1 O5F       0.061700
     61 H21         21.9010    -5.5480    29.5070 hc         1 O5F       0.069200
     62 H22         21.1400    -4.0250    29.9490 hc         1 O5F       0.069200
     63 H23         18.7190    -8.6060    29.5550 h1         1 O5F       0.041033
     64 H24         17.8180    -7.2340    30.2300 h1         1 O5F       0.041033
     65 H25         17.9580    -7.4220    28.4750 h1         1 O5F       0.041033
     66 H26         20.3620    -7.2250    24.6180 ha         1 O5F       0.130000
     67 H27         19.3200    -9.4160    24.9580 ha         1 O5F       0.117000
     68 H28         16.9820    -9.6010    25.7530 ha         1 O5F       0.116000
     69 H29         15.6580    -7.5560    26.1890 ha         1 O5F       0.118000
     70 H30         15.5030    -5.1000    26.2280 h4         1 O5F       0.021100
     71 H31         18.7020    -2.7090    25.2070 h4         1 O5F       0.030100
     72 H1          21.5520    -3.2190    33.8030 ha         1 O5F       0.117000
@<TRIPOS>BOND
     1     1    26 1   
     2     1    27 1   
     3     1    32 1   
     4     2     3 ar  
     5     2     9 ar  
     6     2    72 1   
     7     3     5 ar  
     8     3    42 1   
     9     4    30 1   
    10     4    31 1   
    11     4    43 1   
    12     5    18 ar  
    13     5    44 1   
    14     6    20 2   
    15     7    13 1   
    16     7    15 1   
    17     7    16 1   
    18     7    45 1   
    19     8     9 ar  
    20     8    11 ar  
    21     8    18 ar  
    22     9    46 1   
    23    10    40 ar  
    24    10    41 ar  
    25    11    12 ar  
    26    11    47 1   
    27    12    13 ar  
    28    12    48 1   
    29    13    19 ar  
    30    14    25 1   
    31    14    32 2   
    32    15    20 1   
    33    15    49 1   
    34    16    50 1   
    35    16    51 1   
    36    16    52 1   
    37    17    30 2   
    38    18    19 ar  
    39    19    53 1   
    40    20    21 1   
    41    21    22 ar  
    42    21    26 ar  
    43    22    23 ar  
    44    22    54 1   
    45    23    24 ar  
    46    23    55 1   
    47    24    25 ar  
    48    24    56 1   
    49    25    26 ar  
    50    27    28 1   
    51    27    57 1   
    52    27    58 1   
    53    28    29 1   
    54    28    59 1   
    55    28    60 1   
    56    29    30 1   
    57    29    61 1   
    58    29    62 1   
    59    31    63 1   
    60    31    64 1   
    61    31    65 1   
    62    32    33 1   
    63    33    34 ar  
    64    33    41 ar  
    65    34    35 ar  
    66    34    39 ar  
    67    35    36 ar  
    68    35    66 1   
    69    36    37 ar  
    70    36    67 1   
    71    37    38 ar  
    72    37    68 1   
    73    38    39 ar  
    74    38    69 1   
    75    39    40 ar  
    76    40    70 1   
    77    41    71 1   
@<TRIPOS>SUBSTRUCTURE
     1 O5F         1 TEMP              0 ****  ****    0 ROOT
