@<TRIPOS>MOLECULE
O5F
   72    77     1     0     0
SMALL
No Charge or Current Charge


@<TRIPOS>ATOM
      1 N1          21.5770    -5.0520    25.3270 na         1 O5F      -0.169600
      2 C7          22.4410    -3.6360    33.1580 ca         1 O5F      -0.102000
      3 C8          22.8240    -2.4400    32.5270 ca         1 O5F      -0.104000
      4 N2          19.4250    -5.9930    29.4990 ns         1 O5F      -0.509900
      5 C9          23.6620    -2.4740    31.4000 ca         1 O5F      -0.101000
      6 O1          24.4440    -6.3430    26.2440 o          1 O5F      -0.612100
      7 C1          26.2800    -5.0340    28.0010 c3         1 O5F       0.158000
      8 C5          23.7370    -4.9100    31.5330 ca         1 O5F      -0.040000
      9 C6          22.8980    -4.8700    32.6630 ca         1 O5F      -0.103000
     10 N3          16.7870    -4.3880    24.9810 nb         1 O5F      -0.658000
     11 C4          24.1840    -6.1410    31.0230 ca         1 O5F      -0.103000
     12 C3          25.0070    -6.1770    29.8840 ca         1 O5F      -0.091000
     13 C2          25.3980    -4.9820    29.2470 ca         1 O5F      -0.099300
     14 N4          20.7430    -3.9670    23.4640 nc         1 O5F      -0.563100
     15 N           25.5730    -4.4670    26.8570 ns         1 O5F      -0.499900
     16 C           27.6300    -4.3220    28.2070 c3         1 O5F      -0.100100
     17 O           18.7930    -3.8450    29.0950 o          1 O5F      -0.609100
     18 C10         24.1200    -3.7080    30.8990 ca         1 O5F      -0.042000
     19 C11         24.9470    -3.7480    29.7610 ca         1 O5F      -0.090000
     20 C12         24.6520    -5.1470    26.0960 c          1 O5F       0.616700
     21 C13         24.0040    -4.3330    25.0090 ca         1 O5F      -0.152600
     22 C14         24.8090    -3.4830    24.2100 ca         1 O5F      -0.075000
     23 C15         24.2550    -2.7750    23.1230 ca         1 O5F      -0.145000
     24 C16         22.8900    -2.9080    22.8120 ca         1 O5F      -0.027000
     25 C17         22.0940    -3.7320    23.6200 ca         1 O5F       0.058400
     26 C18         22.6210    -4.4000    24.6970 ca         1 O5F      -0.029200
     27 C19         21.4940    -5.3230    26.7800 c3         1 O5F       0.055600
     28 C20         21.6000    -4.0560    27.6600 c3         1 O5F      -0.086400
     29 C21         21.1700    -4.3030    29.1270 c3         1 O5F      -0.154400
     30 C22         19.6850    -4.6690    29.2320 c          1 O5F       0.584100
     31 C23         18.0820    -6.5710    29.5720 c3         1 O5F       0.095300
     32 C24         20.4710    -4.7930    24.4890 cd         1 O5F       0.473400
     33 C25         19.0830    -5.1710    24.7950 ca         1 O5F      -0.160900
     34 C26         18.6870    -6.4840    25.1570 ca         1 O5F       0.012000
     35 C27         19.5830    -7.5770    25.2000 ca         1 O5F      -0.110000
     36 C28         19.1330    -8.8480    25.5950 ca         1 O5F      -0.090000
     37 C29         17.7860    -9.0460    25.9370 ca         1 O5F      -0.120000
     38 C30         16.8810    -7.9750    25.8700 ca         1 O5F      -0.079000
     39 C31         17.3280    -6.7000    25.4730 ca         1 O5F      -0.102000
     40 C32         16.4230    -5.6270    25.3770 ca         1 O5F       0.386900
     41 C33         18.0910    -4.1790    24.6920 ca         1 O5F       0.377900
     42 H2          22.4690    -1.4850    32.9120 ha         1 O5F       0.118000
     43 H3          20.2230    -6.6050    29.6210 hn         1 O5F       0.314500
     44 H4          23.9510    -1.5440    30.9160 ha         1 O5F       0.115000
     45 H5          26.5030    -6.0860    27.7740 h1         1 O5F       0.081700
     46 H6          22.5960    -5.7920    33.1550 ha         1 O5F       0.114000
     47 H7          23.8910    -7.0720    31.5020 ha         1 O5F       0.116000
     48 H8          25.3390    -7.1370    29.4960 ha         1 O5F       0.118000
     49 H9          25.6920    -3.4840    26.6520 hn         1 O5F       0.317500
     50 H10         28.1640    -4.7590    29.0590 hc         1 O5F       0.047033
     51 H11         28.2600    -4.4300    27.3170 hc         1 O5F       0.047033
     52 H12         27.4900    -3.2520    28.4020 hc         1 O5F       0.047033
     53 H13         25.2320    -2.8200    29.2710 ha         1 O5F       0.110000
     54 H14         25.8760    -3.3970    24.4020 ha         1 O5F       0.114000
     55 H15         24.8890    -2.1380    22.5100 ha         1 O5F       0.119000
     56 H16         22.4570    -2.3780    21.9680 ha         1 O5F       0.133000
     57 H17         20.5250    -5.7940    26.9730 h1         1 O5F       0.082700
     58 H18         22.2450    -6.0580    27.0810 h1         1 O5F       0.082700
     59 H19         22.6310    -3.6840    27.6410 hc         1 O5F       0.061700
     60 H20         20.9700    -3.2640    27.2340 hc         1 O5F       0.061700
     61 H21         21.7860    -5.1100    29.5370 hc         1 O5F       0.069200
     62 H22         21.3420    -3.3810    29.6950 hc         1 O5F       0.069200
     63 H23         18.1550    -7.6440    29.7850 h1         1 O5F       0.041033
     64 H24         17.5100    -6.0800    30.3700 h1         1 O5F       0.041033
     65 H25         17.5680    -6.4280    28.6120 h1         1 O5F       0.041033
     66 H26         20.6270    -7.4630    24.9230 ha         1 O5F       0.130000
     67 H27         19.8300    -9.6830    25.6320 ha         1 O5F       0.117000
     68 H28         17.4410   -10.0320    26.2420 ha         1 O5F       0.116000
     69 H29         15.8350    -8.1390    26.1210 ha         1 O5F       0.118000
     70 H30         15.3670    -5.7650    25.6100 h4         1 O5F       0.021100
     71 H31         18.3480    -3.1610    24.3990 h4         1 O5F       0.030100
     72 H1          21.7920    -3.6070    34.0300 ha         1 O5F       0.117000
@<TRIPOS>BOND
     1     1    26 1   
     2     1    27 1   
     3     1    32 1   
     4     2     3 ar  
     5     2     9 ar  
     6     2    72 1   
     7     3     5 ar  
     8     3    42 1   
     9     4    30 1   
    10     4    31 1   
    11     4    43 1   
    12     5    18 ar  
    13     5    44 1   
    14     6    20 2   
    15     7    13 1   
    16     7    15 1   
    17     7    16 1   
    18     7    45 1   
    19     8     9 ar  
    20     8    11 ar  
    21     8    18 ar  
    22     9    46 1   
    23    10    40 ar  
    24    10    41 ar  
    25    11    12 ar  
    26    11    47 1   
    27    12    13 ar  
    28    12    48 1   
    29    13    19 ar  
    30    14    25 1   
    31    14    32 2   
    32    15    20 1   
    33    15    49 1   
    34    16    50 1   
    35    16    51 1   
    36    16    52 1   
    37    17    30 2   
    38    18    19 ar  
    39    19    53 1   
    40    20    21 1   
    41    21    22 ar  
    42    21    26 ar  
    43    22    23 ar  
    44    22    54 1   
    45    23    24 ar  
    46    23    55 1   
    47    24    25 ar  
    48    24    56 1   
    49    25    26 ar  
    50    27    28 1   
    51    27    57 1   
    52    27    58 1   
    53    28    29 1   
    54    28    59 1   
    55    28    60 1   
    56    29    30 1   
    57    29    61 1   
    58    29    62 1   
    59    31    63 1   
    60    31    64 1   
    61    31    65 1   
    62    32    33 1   
    63    33    34 ar  
    64    33    41 ar  
    65    34    35 ar  
    66    34    39 ar  
    67    35    36 ar  
    68    35    66 1   
    69    36    37 ar  
    70    36    67 1   
    71    37    38 ar  
    72    37    68 1   
    73    38    39 ar  
    74    38    69 1   
    75    39    40 ar  
    76    40    70 1   
    77    41    71 1   
@<TRIPOS>SUBSTRUCTURE
     1 O5F         1 TEMP              0 ****  ****    0 ROOT
