@<TRIPOS>MOLECULE
O5G
   53    56     1     0     0
SMALL
No Charge or Current Charge


@<TRIPOS>ATOM
      1 C3           1.6160    -0.2830    -0.3910 cc         1 O5G      -0.238600
      2 C11          6.5580     2.4070    -0.5390 ca         1 O5G       0.340900
      3 C12          7.7260     1.7100    -0.1910 ca         1 O5G      -0.166000
      4 C13          7.6340     0.3600     0.1830 ca         1 O5G      -0.040300
      5 C14          6.3590    -0.2310     0.1940 ca         1 O5G      -0.139000
      6 C15          8.8710    -0.4340     0.5710 c3         1 O5G      -0.051800
      7 C16         -0.5750    -2.3290    -0.3380 c6         1 O5G       0.044000
      8 C17         -1.7870    -3.2740    -0.4890 c6         1 O5G       0.146600
      9 C19         -3.2900    -1.5680    -1.1490 c6         1 O5G       0.141600
     10 C20         -2.2750    -0.4410    -0.7570 c6         1 O5G       0.069700
     11 C21         -2.7990     0.2950     0.5160 c3         1 O5G      -0.033100
     12 C22         -4.1770     0.9380     0.3300 ca         1 O5G      -0.117300
     13 C23         -4.2840     2.0750    -0.4960 ca         1 O5G      -0.072000
     14 C24         -5.5270     2.6940    -0.7000 ca         1 O5G      -0.145000
     15 C25         -6.6770     2.1840    -0.0800 ca         1 O5G      -0.070000
     16 C26         -6.5840     1.0530     0.7460 ca         1 O5G      -0.198000
     17 C27         -5.3370     0.4220     0.9590 ca         1 O5G       0.142100
     18 C29         -6.3450    -1.2940     2.4290 c3         1 O5G       0.148900
     19 C4           2.6630     0.5960    -0.5080 cd         1 O5G      -0.113000
     20 C5           3.8600    -0.0720    -0.1670 cd         1 O5G       0.179000
     21 C6           0.1980     0.1060    -0.6710 c          1 O5G       0.631700
     22 C9           5.2250     0.5300    -0.1690 ca         1 O5G       0.324000
     23 N1           3.6290    -1.3330     0.1680 nc         1 O5G      -0.503800
     24 N10          5.3310     1.8380    -0.5310 nb         1 O5G      -0.668000
     25 N2           2.2540    -1.4550     0.0320 na         1 O5G       0.024800
     26 N7          -0.8380    -0.8690    -0.5640 n          1 O5G      -0.408800
     27 O18         -2.6380    -2.7880    -1.5330 os         1 O5G      -0.440000
     28 O28         -5.2190    -0.6960     1.7630 os         1 O5G      -0.348100
     29 O8          -0.0720     1.2590    -0.9850 o          1 O5G      -0.547100
     30 H32          6.6050     3.4550    -0.8320 h4         1 O5G       0.019100
     31 H33          8.6850     2.2200    -0.2140 ha         1 O5G       0.121000
     32 H34          6.2480    -1.2730     0.4810 ha         1 O5G       0.136000
     33 H36          9.0310    -0.4010     1.6550 hc         1 O5G       0.047700
     34 H37          8.7770    -1.4860     0.2770 hc         1 O5G       0.047700
     35 H35          9.7700    -0.0360     0.0860 hc         1 O5G       0.047700
     36 H38         -0.1600    -2.4690     0.6700 h1         1 O5G       0.057200
     37 H39          0.1760    -2.6580    -1.0690 h1         1 O5G       0.057200
     38 H40         -1.4450    -4.2900    -0.7350 h1         1 O5G       0.052700
     39 H41         -2.3540    -3.3230     0.4530 h1         1 O5G       0.052700
     40 H42         -3.9600    -1.7930    -0.3070 h1         1 O5G       0.062200
     41 H43         -3.9220    -1.2230    -1.9790 h1         1 O5G       0.062200
     42 H44         -2.2950     0.2850    -1.5830 h1         1 O5G       0.056700
     43 H45         -2.7910    -0.3980     1.3650 hc         1 O5G       0.072700
     44 H46         -2.0920     1.0830     0.7980 hc         1 O5G       0.072700
     45 H47         -3.3990     2.4810    -0.9820 ha         1 O5G       0.120000
     46 H48         -5.5980     3.5710    -1.3400 ha         1 O5G       0.118000
     47 H49         -7.6390     2.6660    -0.2400 ha         1 O5G       0.112000
     48 H50         -7.4920     0.6820     1.2120 ha         1 O5G       0.116000
     49 H52         -6.8130    -0.5820     3.1200 h1         1 O5G       0.041033
     50 H51         -7.0960    -1.6280     1.7020 h1         1 O5G       0.041033
     51 H53         -6.0230    -2.1680     3.0090 h1         1 O5G       0.041033
     52 H31          2.5920     1.6360    -0.8140 ha         1 O5G       0.172000
     53 H30          1.8020    -2.3430     0.2420 hn         1 O5G       0.382000
@<TRIPOS>BOND
     1     1    19 2   
     2     1    21 1   
     3     1    25 1   
     4     2     3 ar  
     5     2    24 ar  
     6     2    30 1   
     7     3     4 ar  
     8     3    31 1   
     9     4     5 ar  
    10     4     6 1   
    11     5    22 ar  
    12     5    32 1   
    13     6    33 1   
    14     6    34 1   
    15     6    35 1   
    16     7     8 1   
    17     7    26 1   
    18     7    36 1   
    19     7    37 1   
    20     8    27 1   
    21     8    38 1   
    22     8    39 1   
    23     9    10 1   
    24     9    27 1   
    25     9    40 1   
    26     9    41 1   
    27    10    11 1   
    28    10    26 1   
    29    10    42 1   
    30    11    12 1   
    31    11    43 1   
    32    11    44 1   
    33    12    13 ar  
    34    12    17 ar  
    35    13    14 ar  
    36    13    45 1   
    37    14    15 ar  
    38    14    46 1   
    39    15    16 ar  
    40    15    47 1   
    41    16    17 ar  
    42    16    48 1   
    43    17    28 1   
    44    18    28 1   
    45    18    49 1   
    46    18    50 1   
    47    18    51 1   
    48    19    20 1   
    49    19    52 1   
    50    20    22 1   
    51    20    23 2   
    52    21    26 1   
    53    21    29 2   
    54    22    24 ar  
    55    23    25 1   
    56    25    53 1   
@<TRIPOS>SUBSTRUCTURE
     1 O5G         1 TEMP              0 ****  ****    0 ROOT
