@<TRIPOS>MOLECULE
O5G
   53    56     1     0     0
SMALL
abcg2


@<TRIPOS>ATOM
      1 C3           1.4250     0.1930    -0.4740 cc         1 O5G      -0.238600
      2 C11          6.7230     1.7750    -0.7830 ca         1 O5G       0.340900
      3 C12          7.6750     1.0420    -0.0940 ca         1 O5G      -0.166000
      4 C13          7.2680    -0.0600     0.6550 ca         1 O5G      -0.040300
      5 C14          5.9120    -0.3580     0.6600 ca         1 O5G      -0.139000
      6 C15          8.2490    -0.8750     1.4370 c3         1 O5G      -0.051800
      7 C16         -0.4300    -1.7370    -1.6510 c6         1 O5G       0.044000
      8 C17         -1.2240    -2.9540    -1.2470 c6         1 O5G       0.146600
      9 C19         -2.9940    -1.6370    -0.5750 c6         1 O5G       0.141600
     10 C20         -2.2850    -0.3170    -0.8930 c6         1 O5G       0.069700
     11 C21         -2.7300     0.7270     0.1460 c3         1 O5G      -0.033100
     12 C22         -4.2200     0.9570     0.1220 ca         1 O5G      -0.117300
     13 C23         -4.7700     1.7260    -0.8960 ca         1 O5G      -0.072000
     14 C24         -6.1360     1.9660    -0.9830 ca         1 O5G      -0.145000
     15 C25         -6.9740     1.4310    -0.0200 ca         1 O5G      -0.070000
     16 C26         -6.4550     0.6660     1.0170 ca         1 O5G      -0.198000
     17 C27         -5.0840     0.4250     1.0930 ca         1 O5G       0.142100
     18 C29         -5.3390    -0.8900     3.0570 c3         1 O5G       0.148900
     19 C4           2.5930     0.8400    -0.8050 cd         1 O5G      -0.113000
     20 C5           3.5880     0.1650    -0.0760 cd         1 O5G       0.179000
     21 C6           0.0340     0.5000    -0.8710 c          1 O5G       0.631700
     22 C9           5.0270     0.4400    -0.0620 ca         1 O5G       0.324000
     23 N1           3.0590    -0.8090     0.6540 nc         1 O5G      -0.503800
     24 N10          5.4270     1.4900    -0.7740 nb         1 O5G      -0.668000
     25 N2           1.7700    -0.7800     0.3980 na         1 O5G       0.024800
     26 N7          -0.8340    -0.5610    -0.8640 n          1 O5G      -0.408800
     27 O18         -2.6010    -2.7070    -1.3970 os         1 O5G      -0.440000
     28 O28         -4.5140    -0.3110     2.0670 os         1 O5G      -0.348100
     29 O8          -0.2680     1.6510    -1.1210 o          1 O5G      -0.547100
     30 H32          7.0230     2.6350    -1.3720 h4         1 O5G       0.019100
     31 H33          8.7170     1.3280    -0.1450 ha         1 O5G       0.121000
     32 H34          5.5410    -1.2100     1.2160 ha         1 O5G       0.136000
     33 H36          8.5100    -0.3650     2.3660 hc         1 O5G       0.047700
     34 H37          7.8420    -1.8500     1.7000 hc         1 O5G       0.047700
     35 H35          9.1740    -1.0250     0.8820 hc         1 O5G       0.047700
     36 H38          0.6320    -1.9380    -1.5300 h1         1 O5G       0.057200
     37 H39         -0.5980    -1.5340    -2.7150 h1         1 O5G       0.057200
     38 H40         -0.9600    -3.7920    -1.8930 h1         1 O5G       0.052700
     39 H41         -0.9880    -3.2340    -0.2100 h1         1 O5G       0.052700
     40 H42         -2.8190    -1.8860     0.4820 h1         1 O5G       0.062200
     41 H43         -4.0660    -1.5060    -0.7180 h1         1 O5G       0.062200
     42 H44         -2.5810     0.0150    -1.8980 h1         1 O5G       0.056700
     43 H45         -2.3880     0.4090     1.1320 hc         1 O5G       0.072700
     44 H46         -2.2490     1.6780    -0.0650 hc         1 O5G       0.072700
     45 H47         -4.1070     2.1550    -1.6390 ha         1 O5G       0.120000
     46 H48         -6.5340     2.5670    -1.7900 ha         1 O5G       0.118000
     47 H49         -8.0410     1.6070    -0.0630 ha         1 O5G       0.112000
     48 H50         -7.1320     0.2630     1.7580 ha         1 O5G       0.116000
     49 H52         -5.8780    -0.1360     3.6350 h1         1 O5G       0.041033
     50 H51         -6.0630    -1.5880     2.6280 h1         1 O5G       0.041033
     51 H53         -4.6800    -1.4380     3.7260 h1         1 O5G       0.041033
     52 H31          2.7110     1.6680    -1.4820 ha         1 O5G       0.172000
     53 H30          1.1490    -1.4110     0.8830 hn         1 O5G       0.382000
@<TRIPOS>BOND
     1     1    19 2   
     2     1    21 1   
     3     1    25 1   
     4     2     3 ar  
     5     2    24 ar  
     6     2    30 1   
     7     3     4 ar  
     8     3    31 1   
     9     4     5 ar  
    10     4     6 1   
    11     5    22 ar  
    12     5    32 1   
    13     6    33 1   
    14     6    34 1   
    15     6    35 1   
    16     7     8 1   
    17     7    26 1   
    18     7    36 1   
    19     7    37 1   
    20     8    27 1   
    21     8    38 1   
    22     8    39 1   
    23     9    10 1   
    24     9    27 1   
    25     9    40 1   
    26     9    41 1   
    27    10    11 1   
    28    10    26 1   
    29    10    42 1   
    30    11    12 1   
    31    11    43 1   
    32    11    44 1   
    33    12    13 ar  
    34    12    17 ar  
    35    13    14 ar  
    36    13    45 1   
    37    14    15 ar  
    38    14    46 1   
    39    15    16 ar  
    40    15    47 1   
    41    16    17 ar  
    42    16    48 1   
    43    17    28 1   
    44    18    28 1   
    45    18    49 1   
    46    18    50 1   
    47    18    51 1   
    48    19    20 1   
    49    19    52 1   
    50    20    22 1   
    51    20    23 2   
    52    21    26 1   
    53    21    29 2   
    54    22    24 ar  
    55    23    25 1   
    56    25    53 1   
@<TRIPOS>SUBSTRUCTURE
     1 O5G         1 TEMP              0 ****  ****    0 ROOT
