@<TRIPOS>MOLECULE
O5H
   44    45     1     0     0
SMALL
abcg2


@<TRIPOS>ATOM
      1 C05        -18.0430    35.9530    41.1320 ca         1 O5H      -0.236500
      2 C06        -18.0700    35.6290    42.4740 ca         1 O5H      -0.097000
      3 C07        -17.7960    36.6060    43.4360 ca         1 O5H      -0.005000
      4 C08        -17.4750    37.8950    43.0020 ca         1 O5H      -0.089000
      5 C09        -17.4420    38.1860    41.6450 ca         1 O5H      -0.103000
      6 C10        -17.7290    37.2300    40.6870 ca         1 O5H      -0.041000
      7 C12        -17.6780    36.9490    45.8970 c          1 O5H       0.654100
      8 C15        -17.9440    36.9180    48.3220 c3         1 O5H       0.108000
      9 C16        -19.3230    37.4900    48.6140 c3         1 O5H       0.131800
     10 C18        -21.5040    36.6660    47.8360 c3         1 O5H       0.218100
     11 C19        -21.2940    36.2180    46.4100 ca         1 O5H      -0.091300
     12 C20        -21.4140    37.1060    45.3470 ca         1 O5H      -0.106000
     13 C21        -21.2880    36.6690    44.0330 ca         1 O5H      -0.118500
     14 C22        -21.0450    35.3310    43.7660 ca         1 O5H      -0.108000
     15 C23        -20.8970    34.4370    44.8220 ca         1 O5H      -0.118500
     16 C24        -21.0160    34.8800    46.1310 ca         1 O5H      -0.106000
     17 N01        -16.9580    34.2510    39.4180 n8         1 O5H      -0.998100
     18 N11        -17.8840    36.2050    44.7590 ns         1 O5H      -0.159000
     19 N14        -17.8820    36.2500    47.0410 ns         1 O5H      -0.489900
     20 N17        -20.3380    36.4470    48.6710 n7         1 O5H      -0.897400
     21 O03        -19.1600    33.6370    40.6390 o          1 O5H      -0.548000
     22 O04        -19.1080    35.3310    38.8000 o          1 O5H      -0.548000
     23 O13        -17.3020    38.1120    45.8800 o          1 O5H      -0.633100
     24 S02        -18.4570    34.7070    39.9430 sy         1 O5H       1.120600
     25 H1         -18.3180    34.6240    42.7870 ha         1 O5H       0.129000
     26 H2         -17.2560    38.6740    43.7120 ha         1 O5H       0.155000
     27 H3         -17.1920    39.1920    41.3350 ha         1 O5H       0.120000
     28 H4         -17.7090    37.4760    39.6340 ha         1 O5H       0.139000
     29 H5         -17.6730    36.1920    49.0900 h1         1 O5H       0.063200
     30 H6         -17.1940    37.7070    48.3500 h1         1 O5H       0.063200
     31 H7         -19.2790    38.0510    49.5540 h1         1 O5H       0.045200
     32 H8         -19.5730    38.2190    47.8380 h1         1 O5H       0.045200
     33 H9         -21.8390    37.7130    47.8370 h1         1 O5H       0.038200
     34 H10        -22.3260    36.0840    48.2600 h1         1 O5H       0.038200
     35 H11        -21.6180    38.1520    45.5460 ha         1 O5H       0.114000
     36 H12        -21.3760    37.3760    43.2180 ha         1 O5H       0.117500
     37 H13        -20.9510    34.9860    42.7430 ha         1 O5H       0.127000
     38 H14        -20.6990    33.3910    44.6240 ha         1 O5H       0.117500
     39 H15        -20.9110    34.1750    46.9480 ha         1 O5H       0.114000
     40 H16        -16.4610    33.6850    40.0970 hn         1 O5H       0.472000
     41 H17        -17.0100    33.7630    38.5280 hn         1 O5H       0.472000
     42 H18        -18.2140    35.2610    44.8890 hn         1 O5H       0.153000
     43 H19        -18.4030    35.3870    46.9910 hn         1 O5H       0.314500
     44 H20        -20.6310    36.3050    49.6250 hn         1 O5H       0.420000
@<TRIPOS>BOND
     1     1     2 ar  
     2     1     6 ar  
     3     1    24 1   
     4     2     3 ar  
     5     2    25 1   
     6     3     4 ar  
     7     3    18 1   
     8     4     5 ar  
     9     4    26 1   
    10     5     6 ar  
    11     5    27 1   
    12     6    28 1   
    13     7    18 1   
    14     7    19 1   
    15     7    23 2   
    16     8     9 1   
    17     8    19 1   
    18     8    29 1   
    19     8    30 1   
    20     9    20 1   
    21     9    31 1   
    22     9    32 1   
    23    10    11 1   
    24    10    20 1   
    25    10    33 1   
    26    10    34 1   
    27    11    12 ar  
    28    11    16 ar  
    29    12    13 ar  
    30    12    35 1   
    31    13    14 ar  
    32    13    36 1   
    33    14    15 ar  
    34    14    37 1   
    35    15    16 ar  
    36    15    38 1   
    37    16    39 1   
    38    17    24 1   
    39    17    40 1   
    40    17    41 1   
    41    18    42 1   
    42    19    43 1   
    43    20    44 1   
    44    21    24 2   
    45    22    24 2   
@<TRIPOS>SUBSTRUCTURE
     1 O5H         1 TEMP              0 ****  ****    0 ROOT
