@<TRIPOS>MOLECULE
O5H
   44    45     1     0     0
SMALL
No Charge or Current Charge


@<TRIPOS>ATOM
      1 C05        -18.0070    35.4620    41.0370 ca         1 O5H      -0.236500
      2 C06        -17.8660    35.2560    42.4280 ca         1 O5H      -0.097000
      3 C07        -17.8720    36.3430    43.3240 ca         1 O5H      -0.005000
      4 C08        -18.0250    37.6510    42.8130 ca         1 O5H      -0.089000
      5 C09        -18.1640    37.8610    41.4300 ca         1 O5H      -0.103000
      6 C10        -18.1540    36.7740    40.5420 ca         1 O5H      -0.041000
      7 C12        -17.6820    36.8680    45.8280 c          1 O5H       0.654100
      8 C15        -17.8030    36.7470    48.3330 c3         1 O5H       0.108000
      9 C16        -19.2680    37.1740    48.5980 c3         1 O5H       0.131800
     10 C18        -21.5230    36.2390    47.9860 c3         1 O5H       0.218100
     11 C19        -21.4410    36.4820    46.4790 ca         1 O5H      -0.091300
     12 C20        -21.5980    37.7780    45.9490 ca         1 O5H      -0.106000
     13 C21        -21.5120    37.9930    44.5610 ca         1 O5H      -0.118500
     14 C22        -21.2740    36.9140    43.6950 ca         1 O5H      -0.108000
     15 C23        -21.1200    35.6180    44.2160 ca         1 O5H      -0.118500
     16 C24        -21.2010    35.4040    45.6030 ca         1 O5H      -0.106000
     17 N01        -16.4030    33.9360    39.5390 n8         1 O5H      -0.998100
     18 N11        -17.7510    36.0520    44.7110 ns         1 O5H      -0.159000
     19 N14        -17.6450    36.1510    47.0000 ns         1 O5H      -0.489900
     20 N17        -20.1830    36.0020    48.5610 n7         1 O5H      -0.897400
     21 O03        -18.2860    32.8280    40.6170 o          1 O5H      -0.548000
     22 O04        -18.6430    34.4230    38.6340 o          1 O5H      -0.548000
     23 O13        -17.6470    38.0910    45.8090 o          1 O5H      -0.633100
     24 S02        -17.9950    34.0660    39.8970 sy         1 O5H       1.120600
     25 H1         -17.7570    34.2450    42.8180 ha         1 O5H       0.129000
     26 H2         -18.0510    38.5150    43.4690 ha         1 O5H       0.155000
     27 H3         -18.2820    38.8710    41.0460 ha         1 O5H       0.120000
     28 H4         -18.2620    36.9540    39.4740 ha         1 O5H       0.139000
     29 H5         -17.4890    36.0180    49.0910 h1         1 O5H       0.063200
     30 H6         -17.1480    37.6240    48.4150 h1         1 O5H       0.063200
     31 H7         -19.3320    37.6810    49.5710 h1         1 O5H       0.045200
     32 H8         -19.5430    37.9130    47.8340 h1         1 O5H       0.045200
     33 H9         -22.0120    37.0930    48.4770 h1         1 O5H       0.038200
     34 H10        -22.1620    35.3620    48.1570 h1         1 O5H       0.038200
     35 H11        -21.7810    38.6210    46.6120 ha         1 O5H       0.114000
     36 H12        -21.6290    38.9970    44.1590 ha         1 O5H       0.117500
     37 H13        -21.2040    37.0800    42.6220 ha         1 O5H       0.127000
     38 H14        -20.9310    34.7820    43.5460 ha         1 O5H       0.117500
     39 H15        -21.0730    34.4000    46.0010 ha         1 O5H       0.114000
     40 H16        -15.9680    34.4360    40.3100 hn         1 O5H       0.472000
     41 H17        -16.2370    32.9570    39.7590 hn         1 O5H       0.472000
     42 H18        -17.7470    35.0630    44.9180 hn         1 O5H       0.153000
     43 H19        -17.7150    35.1450    46.9240 hn         1 O5H       0.314500
     44 H20        -20.2920    35.6450    49.5190 hn         1 O5H       0.420000
@<TRIPOS>BOND
     1     1     2 ar  
     2     1     6 ar  
     3     1    24 1   
     4     2     3 ar  
     5     2    25 1   
     6     3     4 ar  
     7     3    18 1   
     8     4     5 ar  
     9     4    26 1   
    10     5     6 ar  
    11     5    27 1   
    12     6    28 1   
    13     7    18 1   
    14     7    19 1   
    15     7    23 2   
    16     8     9 1   
    17     8    19 1   
    18     8    29 1   
    19     8    30 1   
    20     9    20 1   
    21     9    31 1   
    22     9    32 1   
    23    10    11 1   
    24    10    20 1   
    25    10    33 1   
    26    10    34 1   
    27    11    12 ar  
    28    11    16 ar  
    29    12    13 ar  
    30    12    35 1   
    31    13    14 ar  
    32    13    36 1   
    33    14    15 ar  
    34    14    37 1   
    35    15    16 ar  
    36    15    38 1   
    37    16    39 1   
    38    17    24 1   
    39    17    40 1   
    40    17    41 1   
    41    18    42 1   
    42    19    43 1   
    43    20    44 1   
    44    21    24 2   
    45    22    24 2   
@<TRIPOS>SUBSTRUCTURE
     1 O5H         1 TEMP              0 ****  ****    0 ROOT
