@<TRIPOS>MOLECULE
O5I
   54    56     1     0     0
SMALL
abcg2


@<TRIPOS>ATOM
      1 C1          21.4150    26.0930    -2.2410 c          1 O5I       0.597100
      2 C2          21.5040    27.3780    -3.0460 c3         1 O5I       0.029600
      3 N3          17.3930    19.9810     0.5500 nu         1 O5I      -0.984200
      4 C4          19.4300    23.0550    -2.5210 c6         1 O5I      -0.077700
      5 C5          19.3770    21.6660    -1.8910 c6         1 O5I      -0.092900
      6 C7          15.9650    21.4910    -0.8220 c          1 O5I       0.608100
      7 C8          16.0710    20.1880    -0.0000 c5         1 O5I       0.180200
      8 C9          18.0470    20.7950     1.4320 ca         1 O5I       0.340000
      9 C10         19.2590    20.3530     1.9900 ca         1 O5I      -0.192000
     10 C11         19.9900    21.1450     2.8530 ca         1 O5I      -0.055000
     11 C12         19.5240    22.4080     3.1910 ca         1 O5I       0.064000
     12 C13         18.3310    22.8670     2.6620 ca         1 O5I      -0.055000
     13 C14         17.5960    22.0730     1.7940 ca         1 O5I      -0.192000
     14 C15         15.6970    18.9470    -0.8370 c5         1 O5I      -0.088400
     15 C16         15.2810    17.8770     0.1900 c5         1 O5I      -0.082400
     16 C17         15.0010    18.6400     1.5000 c5         1 O5I      -0.082400
     17 C18         15.0010    20.1150     1.1050 c5         1 O5I      -0.088400
     18 C19         16.9190    23.1220    -2.3500 c6         1 O5I       0.102000
     19 O1          21.8670    26.1180    -1.1050 o          1 O5I      -0.598100
     20 N1          20.8790    25.0210    -2.8250 ns         1 O5I      -0.494900
     21 C3          20.7500    23.7330    -2.1790 c3         1 O5I       0.102000
     22 C6          18.0410    20.9900    -2.1620 c6         1 O5I       0.102000
     23 N2          16.9360    21.8170    -1.7020 n          1 O5I      -0.400800
     24 O2          14.9910    22.2150    -0.6480 o          1 O5I      -0.608100
     25 CL2         20.4390    23.4070     4.2790 cl         1 O5I      -0.209000
     26 C20         18.2180    23.8690    -2.0780 c6         1 O5I      -0.092900
     27 H1          21.1350    28.1960    -2.4310 h1         1 O5I       0.095700
     28 H2          22.5500    27.5700    -3.2820 h1         1 O5I       0.095700
     29 H4          17.7970    19.0680     0.4160 hn         1 O5I       0.486000
     30 H5          19.3760    22.9280    -3.6120 hc         1 O5I       0.043700
     31 H6          20.1790    21.0380    -2.2880 hc         1 O5I       0.056700
     32 H7          19.5310    21.7430    -0.8110 hc         1 O5I       0.056700
     33 H8          19.6370    19.3700     1.7330 ha         1 O5I       0.119500
     34 H9          20.9200    20.7730     3.2610 ha         1 O5I       0.125500
     35 H10         17.9590    23.8500     2.9210 ha         1 O5I       0.125500
     36 H11         16.6700    22.4750     1.4090 ha         1 O5I       0.119500
     37 H12         16.5040    18.6130    -1.4900 hc         1 O5I       0.063450
     38 H13         14.8550    19.2070    -1.4820 hc         1 O5I       0.063450
     39 H14         14.4020    17.3380    -0.1610 hc         1 O5I       0.046700
     40 H15         16.0670    17.1340     0.3280 hc         1 O5I       0.046700
     41 H16         14.0560    18.3490     1.9580 hc         1 O5I       0.046700
     42 H17         15.7820    18.4420     2.2350 hc         1 O5I       0.046700
     43 H18         15.1990    20.7820     1.9440 hc         1 O5I       0.063450
     44 H19         14.0310    20.3910     0.6900 hc         1 O5I       0.063450
     45 H20         16.0670    23.6920    -1.9950 h1         1 O5I       0.053450
     46 H21         16.7920    22.9790    -3.4290 h1         1 O5I       0.053450
     47 H22         20.5830    25.0880    -3.7870 hn         1 O5I       0.325500
     48 H23         21.5820    23.0840    -2.4720 h1         1 O5I       0.060700
     49 H24         20.8220    23.8790    -1.1000 h1         1 O5I       0.060700
     50 H25         17.9200    20.8440    -3.2420 h1         1 O5I       0.053450
     51 H26         18.0170    20.0110    -1.7050 h1         1 O5I       0.053450
     52 H27         18.2930    24.0860    -1.0070 hc         1 O5I       0.056700
     53 H28         18.1850    24.8290    -2.5980 hc         1 O5I       0.056700
     54 CL1         20.5920    27.4070    -4.5860 cl         1 O5I      -0.273000
@<TRIPOS>BOND
     1     1     2 1   
     2     1    19 2   
     3     1    20 1   
     4     2    27 1   
     5     2    28 1   
     6     2    54 1   
     7     3     7 1   
     8     3     8 1   
     9     3    29 1   
    10     4     5 1   
    11     4    21 1   
    12     4    26 1   
    13     4    30 1   
    14     5    22 1   
    15     5    31 1   
    16     5    32 1   
    17     6     7 1   
    18     6    23 1   
    19     6    24 2   
    20     7    14 1   
    21     7    17 1   
    22     8     9 ar  
    23     8    13 ar  
    24     9    10 ar  
    25     9    33 1   
    26    10    11 ar  
    27    10    34 1   
    28    11    12 ar  
    29    11    25 1   
    30    12    13 ar  
    31    12    35 1   
    32    13    36 1   
    33    14    15 1   
    34    14    37 1   
    35    14    38 1   
    36    15    16 1   
    37    15    39 1   
    38    15    40 1   
    39    16    17 1   
    40    16    41 1   
    41    16    42 1   
    42    17    43 1   
    43    17    44 1   
    44    18    23 1   
    45    18    26 1   
    46    18    45 1   
    47    18    46 1   
    48    20    21 1   
    49    20    47 1   
    50    21    48 1   
    51    21    49 1   
    52    22    23 1   
    53    22    50 1   
    54    22    51 1   
    55    26    52 1   
    56    26    53 1   
@<TRIPOS>SUBSTRUCTURE
     1 O5I         1 TEMP              0 ****  ****    0 ROOT
