@<TRIPOS>MOLECULE
O5I
   54    56     1     0     0
SMALL
No Charge or Current Charge


@<TRIPOS>ATOM
      1 C1          20.2430    26.4290    -2.6330 c          1 O5I       0.597100
      2 C2          20.3120    27.4040    -3.8140 c3         1 O5I       0.029600
      3 N3          17.4690    19.4370     1.4410 nu         1 O5I      -0.984200
      4 C4          19.6220    23.0330    -2.1960 c6         1 O5I      -0.077700
      5 C5          19.7280    21.8250    -1.2310 c6         1 O5I      -0.092900
      6 C7          16.4130    21.3700    -0.1920 c          1 O5I       0.608100
      7 C8          16.3750    19.9100     0.5000 c5         1 O5I       0.180200
      8 C9          18.3200    20.4390     1.9150 ca         1 O5I       0.340000
      9 C10         19.7060    20.2350     1.8240 ca         1 O5I      -0.192000
     10 C11         20.6040    21.2090     2.3010 ca         1 O5I      -0.055000
     11 C12         20.1110    22.3890     2.8810 ca         1 O5I       0.064000
     12 C13         18.7260    22.5870     3.0030 ca         1 O5I      -0.055000
     13 C14         17.8330    21.6070     2.5310 ca         1 O5I      -0.192000
     14 C15         16.1720    18.7280    -0.5010 c5         1 O5I      -0.088400
     15 C16         14.7280    19.0010    -1.0020 c5         1 O5I      -0.082400
     16 C17         13.9690    19.5010     0.2700 c5         1 O5I      -0.082400
     17 C18         15.0780    19.7130     1.3500 c5         1 O5I      -0.088400
     18 C19         17.1040    22.5980    -2.2890 c6         1 O5I       0.102000
     19 O1          19.7560    26.7330    -1.5520 o          1 O5I      -0.598100
     20 N1          20.7660    25.1760    -2.8820 ns         1 O5I      -0.494900
     21 C3          20.7640    24.0570    -1.9320 c3         1 O5I       0.102000
     22 C6          18.5830    20.8080    -1.4590 c6         1 O5I       0.102000
     23 N2          17.2530    21.4660    -1.3380 n          1 O5I      -0.400800
     24 O2          15.6980    22.3160     0.1320 o          1 O5I      -0.608100
     25 Cl2         21.2290    23.6140     3.4650 cl         1 O5I      -0.209000
     26 C20         18.2060    23.6640    -2.0830 c6         1 O5I      -0.092900
     27 H1          20.0170    28.4010    -3.4680 h1         1 O5I       0.095700
     28 H2          21.3430    27.4390    -4.1860 h1         1 O5I       0.095700
     29 H4          17.9450    18.5590     1.2320 hn         1 O5I       0.486000
     30 H5          19.7620    22.6690    -3.2230 hc         1 O5I       0.043700
     31 H6          20.6970    21.3210    -1.3550 hc         1 O5I       0.056700
     32 H7          19.6910    22.1860    -0.1950 hc         1 O5I       0.056700
     33 H8          20.0950    19.3260     1.3740 ha         1 O5I       0.119500
     34 H9          21.6770    21.0510     2.2160 ha         1 O5I       0.125500
     35 H10         18.3460    23.4930     3.4670 ha         1 O5I       0.125500
     36 H11         16.7670    21.7610     2.6510 ha         1 O5I       0.119500
     37 H12         16.2250    17.7500    -0.0070 hc         1 O5I       0.063450
     38 H13         16.8920    18.7020    -1.3240 hc         1 O5I       0.063450
     39 H14         14.7250    19.7700    -1.7840 hc         1 O5I       0.046700
     40 H15         14.2680    18.1060    -1.4360 hc         1 O5I       0.046700
     41 H16         13.4300    20.4320     0.0600 hc         1 O5I       0.046700
     42 H17         13.2210    18.7750     0.6100 hc         1 O5I       0.046700
     43 H18         15.1370    18.8290     1.9970 hc         1 O5I       0.063450
     44 H19         14.8580    20.5620     2.0070 hc         1 O5I       0.063450
     45 H20         16.1140    23.0640    -2.1890 h1         1 O5I       0.053450
     46 H21         17.1670    22.2070    -3.3150 h1         1 O5I       0.053450
     47 H22         21.1310    25.0140    -3.8140 hn         1 O5I       0.325500
     48 H23         21.7290    23.5400    -2.0110 h1         1 O5I       0.060700
     49 H24         20.6780    24.4410    -0.9060 h1         1 O5I       0.060700
     50 H25         18.6740    20.3830    -2.4690 h1         1 O5I       0.053450
     51 H26         18.6950    19.9760    -0.7580 h1         1 O5I       0.053450
     52 H27         18.0800    24.1320    -1.0970 hc         1 O5I       0.056700
     53 H28         18.0780    24.4600    -2.8280 hc         1 O5I       0.056700
     54 Cl1         19.2180    26.9310    -5.2010 cl         1 O5I      -0.273000
@<TRIPOS>BOND
     1     1     2 1   
     2     1    19 2   
     3     1    20 1   
     4     2    27 1   
     5     2    28 1   
     6     2    54 1   
     7     3     7 1   
     8     3     8 1   
     9     3    29 1   
    10     4     5 1   
    11     4    21 1   
    12     4    26 1   
    13     4    30 1   
    14     5    22 1   
    15     5    31 1   
    16     5    32 1   
    17     6     7 1   
    18     6    23 1   
    19     6    24 2   
    20     7    14 1   
    21     7    17 1   
    22     8     9 ar  
    23     8    13 ar  
    24     9    10 ar  
    25     9    33 1   
    26    10    11 ar  
    27    10    34 1   
    28    11    12 ar  
    29    11    25 1   
    30    12    13 ar  
    31    12    35 1   
    32    13    36 1   
    33    14    15 1   
    34    14    37 1   
    35    14    38 1   
    36    15    16 1   
    37    15    39 1   
    38    15    40 1   
    39    16    17 1   
    40    16    41 1   
    41    16    42 1   
    42    17    43 1   
    43    17    44 1   
    44    18    23 1   
    45    18    26 1   
    46    18    45 1   
    47    18    46 1   
    48    20    21 1   
    49    20    47 1   
    50    21    48 1   
    51    21    49 1   
    52    22    23 1   
    53    22    50 1   
    54    22    51 1   
    55    26    52 1   
    56    26    53 1   
@<TRIPOS>SUBSTRUCTURE
     1 O5I         1 TEMP              0 ****  ****    0 ROOT
