@<TRIPOS>MOLECULE
O5J
   50    53     1     0     0
SMALL
No Charge or Current Charge


@<TRIPOS>ATOM
      1 C2          -1.0490    -0.2940    -0.4110 c          1 O5J       0.574000
      2 C3          -0.7740    -0.8290     1.8230 c          1 O5J       0.624000
      3 C11         -3.4960    -1.1560    -0.2310 ca         1 O5J      -0.100800
      4 C12          3.6240     0.2360     0.1250 ca         1 O5J      -0.215600
      5 C14          4.4280     1.3980     0.1250 ca         1 O5J      -0.020500
      6 C15          4.2370    -1.0130    -0.1360 ca         1 O5J      -0.020500
      7 C16          6.4090     0.0740    -0.3890 ca         1 O5J       0.175100
      8 C17          5.8060     1.3120    -0.1300 ca         1 O5J      -0.191500
      9 C18          5.6170    -1.0920    -0.3900 ca         1 O5J      -0.191500
     10 C20         -2.8890     2.2250     1.2150 ca         1 O5J      -0.083500
     11 C21         -3.4030     1.7440    -1.1080 ca         1 O5J      -0.083500
     12 C22         -3.1310    -2.3070    -0.9710 ca         1 O5J      -0.083500
     13 C23         -4.8650    -0.9550     0.0570 ca         1 O5J      -0.083500
     14 C24          8.4800    -1.1640    -0.9080 c3         1 O5J       0.147900
     15 C25         -3.8390     3.0680    -1.2880 ca         1 O5J      -0.112750
     16 C26         -4.1090    -3.2060    -1.4310 ca         1 O5J      -0.112750
     17 C27         -5.8420    -1.8540    -0.4040 ca         1 O5J      -0.112750
     18 C28         -3.3250     3.5490     1.0350 ca         1 O5J      -0.112750
     19 C29         -3.8010     3.9720    -0.2160 ca         1 O5J      -0.097500
     20 C30         -5.4650    -2.9790    -1.1520 ca         1 O5J      -0.097500
     21 C10         -2.9270     1.2990     0.1450 ca         1 O5J      -0.100800
     22 C4          -2.4500    -0.1580     0.3040 c5         1 O5J       0.143000
     23 C7           2.1380     0.3510     0.4030 c          1 O5J       0.573700
     24 N1          -0.1890    -0.6950     0.5940 n          1 O5J      -0.373400
     25 N5          -2.0900    -0.5220     1.6910 ns         1 O5J      -0.509900
     26 O13          1.6370     1.4430     0.6570 o          1 O5J      -0.516100
     27 O19          7.7670     0.0550    -0.6320 os         1 O5J      -0.336100
     28 O8          -0.7310    -0.1040    -1.5790 o          1 O5J      -0.491000
     29 O9          -0.2260    -1.1640     2.8580 o          1 O5J      -0.544000
     30 H34          3.9900     2.3750     0.3220 ha         1 O5J       0.123500
     31 H35          3.6600    -1.9350    -0.1440 ha         1 O5J       0.123500
     32 H36          6.4130     2.2140    -0.1280 ha         1 O5J       0.127000
     33 H37          6.0530    -2.0680    -0.5860 ha         1 O5J       0.127000
     34 H38         -2.5210     1.9320     2.1960 ha         1 O5J       0.122500
     35 H39         -3.4370     1.0580    -1.9520 ha         1 O5J       0.122500
     36 H40         -2.0890    -2.5230    -1.1950 ha         1 O5J       0.122500
     37 H41         -5.1790    -0.0930     0.6430 ha         1 O5J       0.122500
     38 H44          8.3970    -1.8630    -0.0660 h1         1 O5J       0.044700
     39 H42          8.0870    -1.6500    -1.8100 h1         1 O5J       0.044700
     40 H43          9.5440    -0.9530    -1.0710 h1         1 O5J       0.044700
     41 H45         -4.2050     3.3920    -2.2590 ha         1 O5J       0.115750
     42 H46         -3.8130    -4.0830    -2.0020 ha         1 O5J       0.115750
     43 H47         -6.8910    -1.6790    -0.1770 ha         1 O5J       0.115750
     44 H48         -3.2920     4.2490     1.8670 ha         1 O5J       0.115750
     45 H49         -4.1380     4.9970    -0.3540 ha         1 O5J       0.114500
     46 H50         -6.2200    -3.6770    -1.5080 ha         1 O5J       0.114500
     47 H33          1.4060    -1.3890    -0.6210 h1         1 O5J       0.088700
     48 H32          1.6570    -1.6160     1.1170 h1         1 O5J       0.088700
     49 H31         -2.7100    -0.5980     2.4870 hn         1 O5J       0.351500
     50 C6           1.2660    -0.9230     0.3630 c3         1 O5J       0.009000
@<TRIPOS>BOND
     1     1    22 1   
     2     1    24 1   
     3     1    28 2   
     4     2    24 1   
     5     2    25 1   
     6     2    29 2   
     7     3    12 ar  
     8     3    13 ar  
     9     3    22 1   
    10     4     5 ar  
    11     4     6 ar  
    12     4    23 1   
    13     5     8 ar  
    14     5    30 1   
    15     6     9 ar  
    16     6    31 1   
    17     7     8 ar  
    18     7     9 ar  
    19     7    27 1   
    20     8    32 1   
    21     9    33 1   
    22    10    18 ar  
    23    10    21 ar  
    24    10    34 1   
    25    11    15 ar  
    26    11    21 ar  
    27    11    35 1   
    28    12    16 ar  
    29    12    36 1   
    30    13    17 ar  
    31    13    37 1   
    32    14    27 1   
    33    14    38 1   
    34    14    39 1   
    35    14    40 1   
    36    15    19 ar  
    37    15    41 1   
    38    16    20 ar  
    39    16    42 1   
    40    17    20 ar  
    41    17    43 1   
    42    18    19 ar  
    43    18    44 1   
    44    19    45 1   
    45    20    46 1   
    46    21    22 1   
    47    22    25 1   
    48    23    26 2   
    49    23    50 1   
    50    24    50 1   
    51    25    49 1   
    52    47    50 1   
    53    48    50 1   
@<TRIPOS>SUBSTRUCTURE
     1 O5J         1 TEMP              0 ****  ****    0 ROOT
