@<TRIPOS>MOLECULE
O5J
   50    53     1     0     0
SMALL
bcc


@<TRIPOS>ATOM
      1 C2          -1.0490    -0.4570    -0.5070 c          1 O5J       0.716500
      2 C3          -0.7260    -0.9990     1.6900 c          1 O5J       0.833500
      3 C11         -3.4860    -1.1580    -0.2420 ca         1 O5J      -0.100800
      4 C12          3.4360     0.1660     0.1330 ca         1 O5J      -0.215600
      5 C14          4.1650     1.3510     0.2980 ca         1 O5J      -0.038500
      6 C15          4.1260    -0.9880    -0.2300 ca         1 O5J      -0.038500
      7 C16          6.2110     0.2070    -0.2490 ca         1 O5J       0.175100
      8 C17          5.5270     1.3760     0.1110 ca         1 O5J      -0.209500
      9 C18          5.4980    -0.9800    -0.4210 ca         1 O5J      -0.209500
     10 C20         -2.4280     2.1820     1.0240 ca         1 O5J      -0.101500
     11 C21         -3.3520     1.6560    -1.1290 ca         1 O5J      -0.101500
     12 C22         -3.2570    -2.2530    -1.0670 ca         1 O5J      -0.101500
     13 C23         -4.7720    -0.9400     0.2510 ca         1 O5J      -0.101500
     14 C24          8.2880    -0.8340    -0.7270 c3         1 O5J       0.124700
     15 C25         -3.6510     2.9940    -1.3290 ca         1 O5J      -0.130750
     16 C26         -4.3000    -3.1110    -1.4000 ca         1 O5J      -0.130750
     17 C27         -5.8090    -1.7980    -0.0760 ca         1 O5J      -0.130750
     18 C28         -2.7330     3.5230     0.8240 ca         1 O5J      -0.130750
     19 C29         -3.3450     3.9330    -0.3510 ca         1 O5J      -0.115500
     20 C30         -5.5760    -2.8880    -0.9070 ca         1 O5J      -0.115500
     21 C10         -2.7430     1.2400     0.0520 ca         1 O5J      -0.100800
     22 C4          -2.3770    -0.2270     0.2280 c5         1 O5J       0.143000
     23 C7           1.9800     0.1750     0.3480 c          1 O5J       0.573700
     24 N1          -0.1730    -0.9540     0.4060 n          1 O5J      -0.507400
     25 N5          -1.9920    -0.5570     1.5800 ns         1 O5J      -0.576900
     26 O13          1.3720     1.1750     0.6650 o          1 O5J      -0.516100
     27 O19          7.5320     0.3210    -0.4040 os         1 O5J      -0.312900
     28 O8          -0.8210    -0.2320    -1.6680 o          1 O5J      -0.566500
     29 O9          -0.1370    -1.3740     2.6770 o          1 O5J      -0.619500
     30 H34          3.6550     2.2620     0.5810 ha         1 O5J       0.141500
     31 H35          3.6070    -1.9270    -0.3740 ha         1 O5J       0.141500
     32 H36          6.0810     2.2960     0.2440 ha         1 O5J       0.145000
     33 H37          5.9900    -1.9010    -0.7010 ha         1 O5J       0.145000
     34 H38         -1.9480     1.8750     1.9430 ha         1 O5J       0.140500
     35 H39         -3.6020     0.9320    -1.8940 ha         1 O5J       0.140500
     36 H40         -2.2750    -2.4580    -1.4700 ha         1 O5J       0.140500
     37 H41         -4.9680    -0.0910     0.8950 ha         1 O5J       0.140500
     38 H44          8.1840    -1.6100     0.0350 h1         1 O5J       0.044700
     39 H42          8.0020    -1.2480    -1.6970 h1         1 O5J       0.044700
     40 H43          9.3270    -0.5180    -0.7710 h1         1 O5J       0.044700
     41 H45         -4.1270     3.3060    -2.2500 ha         1 O5J       0.133750
     42 H46         -4.1070    -3.9560    -2.0480 ha         1 O5J       0.133750
     43 H47         -6.8000    -1.6150     0.3180 ha         1 O5J       0.133750
     44 H48         -2.4900     4.2470     1.5910 ha         1 O5J       0.133750
     45 H49         -3.5830     4.9770    -0.5060 ha         1 O5J       0.132500
     46 H50         -6.3850    -3.5560    -1.1690 ha         1 O5J       0.132500
     47 H33          1.3640    -1.5080    -0.8590 h1         1 O5J       0.088700
     48 H32          1.6130    -1.9000     0.8320 h1         1 O5J       0.088700
     49 H31         -2.6480    -0.6220     2.3420 hn         1 O5J       0.351500
     50 C6           1.2250    -1.1350     0.1570 c3         1 O5J       0.009000
@<TRIPOS>BOND
     1     1    22 1   
     2     1    24 1   
     3     1    28 2   
     4     2    24 1   
     5     2    25 1   
     6     2    29 2   
     7     3    12 ar  
     8     3    13 ar  
     9     3    22 1   
    10     4     5 ar  
    11     4     6 ar  
    12     4    23 1   
    13     5     8 ar  
    14     5    30 1   
    15     6     9 ar  
    16     6    31 1   
    17     7     8 ar  
    18     7     9 ar  
    19     7    27 1   
    20     8    32 1   
    21     9    33 1   
    22    10    18 ar  
    23    10    21 ar  
    24    10    34 1   
    25    11    15 ar  
    26    11    21 ar  
    27    11    35 1   
    28    12    16 ar  
    29    12    36 1   
    30    13    17 ar  
    31    13    37 1   
    32    14    27 1   
    33    14    38 1   
    34    14    39 1   
    35    14    40 1   
    36    15    19 ar  
    37    15    41 1   
    38    16    20 ar  
    39    16    42 1   
    40    17    20 ar  
    41    17    43 1   
    42    18    19 ar  
    43    18    44 1   
    44    19    45 1   
    45    20    46 1   
    46    21    22 1   
    47    22    25 1   
    48    23    26 2   
    49    23    50 1   
    50    24    50 1   
    51    25    49 1   
    52    47    50 1   
    53    48    50 1   
@<TRIPOS>SUBSTRUCTURE
     1 O5J         1 TEMP              0 ****  ****    0 ROOT
