@<TRIPOS>MOLECULE
O5K
   44    45     1     0     0
SMALL
No Charge or Current Charge


@<TRIPOS>ATOM
      1 C10        -17.1120    35.0850    43.1940 ca         1 O5K       0.024000
      2 C12        -20.6880    37.2810    45.9010 c          1 O5K       0.660100
      3 C15        -21.8360    38.4860    47.7940 c3         1 O5K       0.112000
      4 C16        -22.8030    37.4190    48.3610 c3         1 O5K       0.127800
      5 C18        -24.9370    37.1150    49.6400 c3         1 O5K       0.215100
      6 C19        -25.6260    36.2960    48.5530 ca         1 O5K      -0.109300
      7 C05        -17.9680    34.6910    42.1480 ca         1 O5K      -0.315500
      8 C06        -19.3410    34.9940    42.2190 ca         1 O5K       0.024000
      9 C07        -19.8530    35.6890    43.3290 ca         1 O5K      -0.183000
     10 C08        -19.0010    36.0900    44.3810 ca         1 O5K       0.058000
     11 C09        -17.6320    35.7790    44.2990 ca         1 O5K      -0.183000
     12 C20        -26.5560    36.9070    47.6890 ca         1 O5K      -0.071500
     13 C21        -27.1920    36.1540    46.6850 ca         1 O5K      -0.152500
     14 C22        -26.8980    34.7900    46.5440 ca         1 O5K       0.172000
     15 C24        -25.9740    34.1720    47.4000 ca         1 O5K      -0.152500
     16 C25        -25.3370    34.9230    48.4040 ca         1 O5K      -0.071500
     17 F23        -27.5080    34.0670    45.5800 f          1 O5K      -0.180000
     18 N01        -17.0250    35.0300    39.6920 n8         1 O5K      -1.000100
     19 N11        -19.4470    36.7920    45.5320 ns         1 O5K      -0.165000
     20 N14        -20.6630    37.8980    47.1310 ns         1 O5K      -0.519900
     21 N17        -23.9410    38.0490    49.0740 n7         1 O5K      -0.862400
     22 O03        -15.9940    33.2770    41.0360 o          1 O5K      -0.547500
     23 O04        -18.3720    33.0090    40.0980 o          1 O5K      -0.547500
     24 O13        -21.7090    37.1970    45.2350 o          1 O5K      -0.605100
     25 S02        -17.3210    33.8060    40.7330 sy         1 O5K       1.131600
     26 H1         -16.0470    34.8570    43.1590 ha         1 O5K       0.137000
     27 H2         -21.4840    39.1290    48.6110 h1         1 O5K       0.064200
     28 H3         -22.3730    39.1190    47.0750 h1         1 O5K       0.064200
     29 H4         -23.1660    36.7990    47.5300 h1         1 O5K       0.042700
     30 H5         -22.2440    36.7620    49.0420 h1         1 O5K       0.042700
     31 H6         -24.4590    36.4390    50.3630 h1         1 O5K       0.037700
     32 H7         -25.7050    37.6780    50.1890 h1         1 O5K       0.037700
     33 H8         -20.0170    34.6950    41.4180 ha         1 O5K       0.137000
     34 H9         -20.9160    35.9020    43.3500 ha         1 O5K       0.133500
     35 H10        -16.9590    36.0770    45.1000 ha         1 O5K       0.133500
     36 H11        -26.7820    37.9670    47.7950 ha         1 O5K       0.122000
     37 H12        -27.9090    36.6260    46.0180 ha         1 O5K       0.132000
     38 H13        -25.7510    33.1140    47.2840 ha         1 O5K       0.132000
     39 H14        -24.6190    34.4400    49.0640 ha         1 O5K       0.122000
     40 H15        -16.9860    35.8340    40.3130 hn         1 O5K       0.469500
     41 H16        -16.0500    34.8530    39.4600 hn         1 O5K       0.469500
     42 H17        -18.7150    36.9630    46.2080 hn         1 O5K       0.146000
     43 H18        -19.7730    37.9280    47.6130 hn         1 O5K       0.308500
     44 H19        -23.5650    38.6080    49.8490 hn         1 O5K       0.410000
@<TRIPOS>BOND
     1     1     7 ar  
     2     1    11 ar  
     3     1    26 1   
     4     2    19 1   
     5     2    20 1   
     6     2    24 2   
     7     3     4 1   
     8     3    20 1   
     9     3    27 1   
    10     3    28 1   
    11     4    21 1   
    12     4    29 1   
    13     4    30 1   
    14     5     6 1   
    15     5    21 1   
    16     5    31 1   
    17     5    32 1   
    18     6    12 ar  
    19     6    16 ar  
    20     7     8 ar  
    21     7    25 1   
    22     8     9 ar  
    23     8    33 1   
    24     9    10 ar  
    25     9    34 1   
    26    10    11 ar  
    27    10    19 1   
    28    11    35 1   
    29    12    13 ar  
    30    12    36 1   
    31    13    14 ar  
    32    13    37 1   
    33    14    15 ar  
    34    14    17 1   
    35    15    16 ar  
    36    15    38 1   
    37    16    39 1   
    38    18    25 1   
    39    18    40 1   
    40    18    41 1   
    41    19    42 1   
    42    20    43 1   
    43    21    44 1   
    44    22    25 2   
    45    23    25 2   
@<TRIPOS>SUBSTRUCTURE
     1 O5K         1 TEMP              0 ****  ****    0 ROOT
