@<TRIPOS>MOLECULE
O5K
   44    45     1     0     0
SMALL
bcc


@<TRIPOS>ATOM
      1 C10        -17.3050    34.9070    43.4060 ca         1 O5K       0.006000
      2 C12        -20.6500    37.4490    45.8980 c          1 O5K       0.794100
      3 C15        -21.9370    38.5460    47.6610 c3         1 O5K       0.112000
      4 C16        -22.7010    37.4420    48.3840 c3         1 O5K       0.127800
      5 C18        -24.7770    36.9560    49.5320 c3         1 O5K       0.215100
      6 C19        -25.4820    36.1160    48.4950 ca         1 O5K      -0.109300
      7 C05        -18.0680    34.8430    42.2480 ca         1 O5K      -0.315500
      8 C06        -19.2920    35.4950    42.1800 ca         1 O5K       0.006000
      9 C07        -19.7680    36.2090    43.2630 ca         1 O5K      -0.201000
     10 C08        -19.0140    36.2760    44.4430 ca         1 O5K       0.150600
     11 C09        -17.7780    35.6200    44.4900 ca         1 O5K      -0.201000
     12 C20        -25.9380    36.6770    47.3050 ca         1 O5K      -0.089500
     13 C21        -26.6250    35.9170    46.3700 ca         1 O5K      -0.170500
     14 C22        -26.8530    34.5810    46.6410 ca         1 O5K       0.136900
     15 C24        -26.4120    33.9860    47.8050 ca         1 O5K      -0.170500
     16 C25        -25.7220    34.7650    48.7250 ca         1 O5K      -0.089500
     17 F23        -27.5200    33.8370    45.7400 f          1 O5K      -0.144900
     18 N01        -17.0300    35.1210    39.8300 n8         1 O5K      -0.889700
     19 N11        -19.3940    36.9750    45.5730 ns         1 O5K      -0.491100
     20 N14        -20.6930    38.0870    47.0870 ns         1 O5K      -0.586900
     21 N17        -23.9280    37.9690    48.9420 n7         1 O5K      -0.807200
     22 O03        -16.3960    33.0800    41.3010 o          1 O5K      -0.618300
     23 O04        -18.6350    33.2700    40.2090 o          1 O5K      -0.618300
     24 O13        -21.6240    37.3140    45.1740 o          1 O5K      -0.605100
     25 S02        -17.5050    33.9180    40.8610 sy         1 O5K       1.273200
     26 H1         -16.3520    34.4030    43.4780 ha         1 O5K       0.155000
     27 H2         -21.6980    39.3540    48.3550 h1         1 O5K       0.064200
     28 H3         -22.5660    38.9720    46.8790 h1         1 O5K       0.064200
     29 H4         -22.9480    36.6590    47.6630 h1         1 O5K       0.042700
     30 H5         -22.0500    36.9790    49.1420 h1         1 O5K       0.042700
     31 H6         -24.2380    36.2870    50.2210 h1         1 O5K       0.037700
     32 H7         -25.5290    37.4690    50.1390 h1         1 O5K       0.037700
     33 H8         -19.8900    35.4580    41.2790 ha         1 O5K       0.155000
     34 H9         -20.7170    36.7110    43.1810 ha         1 O5K       0.151500
     35 H10        -17.1810    35.6600    45.3930 ha         1 O5K       0.151500
     36 H11        -25.7410    37.7220    47.1040 ha         1 O5K       0.140000
     37 H12        -26.9780    36.3560    45.4460 ha         1 O5K       0.150000
     38 H13        -26.5950    32.9360    47.9910 ha         1 O5K       0.150000
     39 H14        -25.3630    34.3040    49.6380 ha         1 O5K       0.140000
     40 H15        -16.1730    35.5750    40.1290 hn         1 O5K       0.414300
     41 H16        -16.9240    34.7730    38.8820 hn         1 O5K       0.414300
     42 H17        -18.6810    37.0490    46.2830 hn         1 O5K       0.312500
     43 H18        -19.8770    38.1080    47.6760 hn         1 O5K       0.308500
     44 H19        -23.7060    38.6570    49.6510 hn         1 O5K       0.354800
@<TRIPOS>BOND
     1     1     7 ar  
     2     1    11 ar  
     3     1    26 1   
     4     2    19 1   
     5     2    20 1   
     6     2    24 2   
     7     3     4 1   
     8     3    20 1   
     9     3    27 1   
    10     3    28 1   
    11     4    21 1   
    12     4    29 1   
    13     4    30 1   
    14     5     6 1   
    15     5    21 1   
    16     5    31 1   
    17     5    32 1   
    18     6    12 ar  
    19     6    16 ar  
    20     7     8 ar  
    21     7    25 1   
    22     8     9 ar  
    23     8    33 1   
    24     9    10 ar  
    25     9    34 1   
    26    10    11 ar  
    27    10    19 1   
    28    11    35 1   
    29    12    13 ar  
    30    12    36 1   
    31    13    14 ar  
    32    13    37 1   
    33    14    15 ar  
    34    14    17 1   
    35    15    16 ar  
    36    15    38 1   
    37    16    39 1   
    38    18    25 1   
    39    18    40 1   
    40    18    41 1   
    41    19    42 1   
    42    20    43 1   
    43    21    44 1   
    44    22    25 2   
    45    23    25 2   
@<TRIPOS>SUBSTRUCTURE
     1 O5K         1 TEMP              0 ****  ****    0 ROOT
