@<TRIPOS>MOLECULE
O5L
   50    52     1     0     0
SMALL
No Charge or Current Charge


@<TRIPOS>ATOM
      1 C1         -25.1430    25.2220    18.6500 c          1 O5L       0.608700
      2 C2         -24.4300    23.9190    18.9650 ca         1 O5L      -0.140600
      3 O1         -25.7410    25.8560    19.5110 o          1 O5L      -0.558100
      4 N1         -25.0900    25.6580    17.3330 ns         1 O5L      -0.370400
      5 O2         -25.6850    26.9270    17.0000 os         1 O5L      -0.236100
      6 C3         -27.0460    26.7760    16.5600 c3         1 O5L       0.190900
      7 C4         -27.6110    28.1550    16.2500 ca         1 O5L      -0.113300
      8 C5         -27.5960    28.6500    14.9320 ca         1 O5L      -0.037000
      9 C6         -28.1170    29.9310    14.6260 ca         1 O5L      -0.195300
     10 C7         -28.6570    30.7140    15.6810 ca         1 O5L      -0.050000
     11 C8         -28.6670    30.2130    16.9950 ca         1 O5L      -0.124000
     12 C9         -28.1470    28.9430    17.2810 ca         1 O5L      -0.042000
     13 C10        -24.4300    23.4290    20.2900 ca         1 O5L      -0.081000
     14 C11        -23.7820    22.2260    20.6200 ca         1 O5L      -0.081500
     15 C12        -23.1110    21.4720    19.6290 ca         1 O5L      -0.130600
     16 C13        -23.1110    21.9600    18.3050 ca         1 O5L      -0.081500
     17 C14        -23.7590    23.1630    17.9740 ca         1 O5L      -0.081000
     18 C15        -22.4020    20.1710    19.9490 c          1 O5L       0.613700
     19 N2         -22.4170    19.7270    21.2250 nt         1 O5L      -0.601000
     20 O3         -21.8200    19.5120    19.1020 o          1 O5L      -0.595100
     21 S1         -29.3390    32.3530    15.3950 ss         1 O5L       0.090000
     22 C16        -28.3030    33.3160    16.4970 ca         1 O5L      -0.215000
     23 C17        -26.9110    33.1070    16.5360 ca         1 O5L      -0.012500
     24 C18        -26.1130    33.8730    17.4030 ca         1 O5L      -0.203000
     25 C19        -26.6990    34.8440    18.2260 ca         1 O5L       0.337000
     26 C20        -28.0830    35.0560    18.1840 ca         1 O5L      -0.203000
     27 C21        -28.8880    34.2950    17.3190 ca         1 O5L      -0.012500
     28 N3         -25.9200    35.5850    19.0680 nv         1 O5L      -1.085000
     29 C22        -28.0840    30.4550    13.1780 c3         1 O5L       0.359300
     30 F1         -27.3610    31.5930    13.0730 f          1 O5L      -0.110667
     31 F2         -29.3260    30.7250    12.7130 f          1 O5L      -0.110667
     32 F3         -27.5360    29.5760    12.3090 f          1 O5L      -0.110667
     33 H1         -24.5660    25.1860    16.6040 hn         1 O5L       0.333500
     34 H2         -27.6540    26.3000    17.3410 h1         1 O5L       0.049700
     35 H3         -27.0950    26.1440    15.6640 h1         1 O5L       0.049700
     36 H4         -27.1710    28.0260    14.1490 ha         1 O5L       0.128000
     37 H5         -29.0790    30.8160    17.8010 ha         1 O5L       0.131000
     38 H6         -28.1580    28.5730    18.3050 ha         1 O5L       0.134000
     39 H7         -24.9370    23.9830    21.0780 ha         1 O5L       0.129500
     40 H8         -23.8120    21.8940    21.6550 ha         1 O5L       0.130000
     41 H9         -22.6050    21.4040    17.5180 ha         1 O5L       0.130000
     42 H10        -23.7290    23.4900    16.9380 ha         1 O5L       0.129500
     43 H11        -21.9480    18.8620    21.4480 hn         1 O5L       0.315500
     44 H12        -22.8900    20.2520    21.9430 hn         1 O5L       0.315500
     45 H13        -26.4470    32.3580    15.8970 ha         1 O5L       0.125000
     46 H14        -25.0400    33.7080    17.4310 ha         1 O5L       0.116000
     47 H15        -28.5400    35.8100    18.8180 ha         1 O5L       0.116000
     48 H16        -29.9630    34.4640    17.2900 ha         1 O5L       0.125000
     49 H17        -26.3630    36.1620    19.7800 hn         1 O5L       0.462500
     50 H18        -24.9510    35.3160    19.2230 hn         1 O5L       0.462500
@<TRIPOS>BOND
     1     1     2 1   
     2     1     3 2   
     3     1     4 1   
     4     2    13 ar  
     5     2    17 ar  
     6     4     5 1   
     7     4    33 1   
     8     5     6 1   
     9     6     7 1   
    10     6    34 1   
    11     6    35 1   
    12     7     8 ar  
    13     7    12 ar  
    14     8     9 ar  
    15     8    36 1   
    16     9    10 ar  
    17     9    29 1   
    18    10    11 ar  
    19    10    21 1   
    20    11    12 ar  
    21    11    37 1   
    22    12    38 1   
    23    13    14 ar  
    24    13    39 1   
    25    14    15 ar  
    26    14    40 1   
    27    15    16 ar  
    28    15    18 1   
    29    16    17 ar  
    30    16    41 1   
    31    17    42 1   
    32    18    19 1   
    33    18    20 2   
    34    19    43 1   
    35    19    44 1   
    36    21    22 1   
    37    22    23 ar  
    38    22    27 ar  
    39    23    24 ar  
    40    23    45 1   
    41    24    25 ar  
    42    24    46 1   
    43    25    26 ar  
    44    25    28 1   
    45    26    27 ar  
    46    26    47 1   
    47    27    48 1   
    48    28    49 1   
    49    28    50 1   
    50    29    30 1   
    51    29    31 1   
    52    29    32 1   
@<TRIPOS>SUBSTRUCTURE
     1 O5L         1 TEMP              0 ****  ****    0 ROOT
