@<TRIPOS>MOLECULE
O5L
   50    52     1     0     0
SMALL
abcg2


@<TRIPOS>ATOM
      1 C1         -25.4240    25.2880    18.4480 c          1 O5L       0.608700
      2 C2         -24.7640    24.0290    18.9090 ca         1 O5L      -0.140600
      3 O1         -25.8600    26.1130    19.2260 o          1 O5L      -0.558100
      4 N1         -25.4980    25.4190    17.1010 ns         1 O5L      -0.370400
      5 O2         -25.8780    26.6300    16.6070 os         1 O5L      -0.236100
      6 C3         -27.2170    26.6060    16.0990 c3         1 O5L       0.190900
      7 C4         -27.5700    28.0350    15.8270 ca         1 O5L      -0.113300
      8 C5         -27.6730    28.5250    14.5340 ca         1 O5L      -0.037000
      9 C6         -27.9410    29.8690    14.2920 ca         1 O5L      -0.195300
     10 C7         -28.1070    30.7520    15.3660 ca         1 O5L      -0.050000
     11 C8         -28.0140    30.2520    16.6630 ca         1 O5L      -0.124000
     12 C9         -27.7430    28.9170    16.8880 ca         1 O5L      -0.042000
     13 C10        -24.0690    24.0660    20.1140 ca         1 O5L      -0.081000
     14 C11        -23.4100    22.9400    20.5770 ca         1 O5L      -0.081500
     15 C12        -23.4580    21.7490    19.8550 ca         1 O5L      -0.130600
     16 C13        -24.1960    21.7010    18.6770 ca         1 O5L      -0.081500
     17 C14        -24.8330    22.8330    18.1980 ca         1 O5L      -0.081000
     18 C15        -22.7770    20.4960    20.3170 c          1 O5L       0.613700
     19 N2         -21.6960    20.6650    21.0940 nt         1 O5L      -0.601000
     20 O3         -23.2000    19.3970    19.9920 o          1 O5L      -0.595100
     21 S1         -28.4470    32.4710    15.0790 ss         1 O5L       0.090000
     22 C16        -27.8280    33.2290    16.5460 ca         1 O5L      -0.215000
     23 C17        -26.4580    33.4280    16.7160 ca         1 O5L      -0.012500
     24 C18        -25.9710    34.0460    17.8490 ca         1 O5L      -0.203000
     25 C19        -26.8440    34.5020    18.8500 ca         1 O5L       0.337000
     26 C20        -28.2200    34.3070    18.6670 ca         1 O5L      -0.203000
     27 C21        -28.7010    33.6780    17.5330 ca         1 O5L      -0.012500
     28 N3         -26.3660    35.1620    19.9480 nv         1 O5L      -1.085000
     29 C22        -27.9870    30.3730    12.8800 c3         1 O5L       0.359300
     30 F1         -26.9420    31.1650    12.6040 f          1 O5L      -0.110667
     31 F2         -29.0920    31.0940    12.6380 f          1 O5L      -0.110667
     32 F3         -27.9680    29.3870    11.9800 f          1 O5L      -0.110667
     33 H1         -24.8790    24.9070    16.4860 hn         1 O5L       0.333500
     34 H2         -27.8910    26.1730    16.8440 h1         1 O5L       0.049700
     35 H3         -27.2730    25.9990    15.1900 h1         1 O5L       0.049700
     36 H4         -27.5280    27.8430    13.7060 ha         1 O5L       0.128000
     37 H5         -28.1490    30.9150    17.5060 ha         1 O5L       0.131000
     38 H6         -27.6720    28.5570    17.9080 ha         1 O5L       0.134000
     39 H7         -24.0310    24.9810    20.6900 ha         1 O5L       0.129500
     40 H8         -22.8780    23.0000    21.5180 ha         1 O5L       0.130000
     41 H9         -24.2670    20.7750    18.1220 ha         1 O5L       0.130000
     42 H10        -25.4010    22.7670    17.2790 ha         1 O5L       0.129500
     43 H11        -21.1800    19.8580    21.4070 hn         1 O5L       0.315500
     44 H12        -21.2580    21.5610    21.2250 hn         1 O5L       0.315500
     45 H13        -25.7660    33.0890    15.9560 ha         1 O5L       0.125000
     46 H14        -24.9020    34.1870    17.9650 ha         1 O5L       0.116000
     47 H15        -28.9150    34.6470    19.4260 ha         1 O5L       0.116000
     48 H16        -29.7670    33.5290    17.4200 ha         1 O5L       0.125000
     49 H17        -26.9700    35.2150    20.7520 hn         1 O5L       0.462500
     50 H18        -25.3980    35.0230    20.1860 hn         1 O5L       0.462500
@<TRIPOS>BOND
     1     1     2 1   
     2     1     3 2   
     3     1     4 1   
     4     2    13 ar  
     5     2    17 ar  
     6     4     5 1   
     7     4    33 1   
     8     5     6 1   
     9     6     7 1   
    10     6    34 1   
    11     6    35 1   
    12     7     8 ar  
    13     7    12 ar  
    14     8     9 ar  
    15     8    36 1   
    16     9    10 ar  
    17     9    29 1   
    18    10    11 ar  
    19    10    21 1   
    20    11    12 ar  
    21    11    37 1   
    22    12    38 1   
    23    13    14 ar  
    24    13    39 1   
    25    14    15 ar  
    26    14    40 1   
    27    15    16 ar  
    28    15    18 1   
    29    16    17 ar  
    30    16    41 1   
    31    17    42 1   
    32    18    19 1   
    33    18    20 2   
    34    19    43 1   
    35    19    44 1   
    36    21    22 1   
    37    22    23 ar  
    38    22    27 ar  
    39    23    24 ar  
    40    23    45 1   
    41    24    25 ar  
    42    24    46 1   
    43    25    26 ar  
    44    25    28 1   
    45    26    27 ar  
    46    26    47 1   
    47    27    48 1   
    48    28    49 1   
    49    28    50 1   
    50    29    30 1   
    51    29    31 1   
    52    29    32 1   
@<TRIPOS>SUBSTRUCTURE
     1 O5L         1 TEMP              0 ****  ****    0 ROOT
