@<TRIPOS>MOLECULE
O5M
   49    52     1     0     0
SMALL
No Charge or Current Charge


@<TRIPOS>ATOM
      1 C3           1.3550    -0.3200    -0.3520 cc         1 O5M      -0.240600
      2 C11          6.2550     2.4470    -0.4640 ca         1 O5M       0.340900
      3 C12          7.4340     1.7600    -0.1370 ca         1 O5M      -0.166000
      4 C13          7.3650     0.4010     0.2070 ca         1 O5M      -0.039300
      5 C14          6.0990    -0.2100     0.2110 ca         1 O5M      -0.138000
      6 C15          8.6160    -0.3820     0.5720 c3         1 O5M      -0.052800
      7 C16         -0.8080    -2.3970    -0.3220 c6         1 O5M       0.044000
      8 C17         -2.0080    -3.3560    -0.4830 c6         1 O5M       0.145600
      9 C19         -3.5340    -1.6600    -1.1210 c6         1 O5M       0.140600
     10 C20         -2.5360    -0.5270    -0.7030 c6         1 O5M       0.069700
     11 C21         -3.0650     0.1670     0.5910 c3         1 O5M      -0.038100
     12 C22         -4.4560     0.7860     0.4310 ca         1 O5M      -0.122300
     13 C23         -4.6140     1.9190    -0.3930 ca         1 O5M      -0.082000
     14 C24         -5.8810     2.5060    -0.5620 ca         1 O5M      -0.124000
     15 C25         -7.0020     1.9680     0.0930 ca         1 O5M      -0.083000
     16 C26         -6.8530     0.8410     0.9180 ca         1 O5M      -0.150000
     17 C27         -5.5880     0.2540     1.0880 ca         1 O5M       0.169000
     18 C4           2.3870     0.5770    -0.4540 cd         1 O5M      -0.111000
     19 C5           3.5970    -0.0800    -0.1340 cd         1 O5M       0.179000
     20 C6          -0.0700     0.0540    -0.6160 c          1 O5M       0.632700
     21 C9           4.9520     0.5430    -0.1280 ca         1 O5M       0.323000
     22 F28         -5.4760    -0.8330     1.8840 f          1 O5M      -0.184000
     23 N1           3.3860    -1.3510     0.1740 nc         1 O5M      -0.501800
     24 N10          5.0370     1.8590    -0.4620 nb         1 O5M      -0.668000
     25 N2           2.0130    -1.4910     0.0430 na         1 O5M       0.024800
     26 N7          -1.0920    -0.9380    -0.5250 n          1 O5M      -0.411800
     27 O18         -2.8660    -2.8660    -1.5200 os         1 O5M      -0.437000
     28 O8          -0.3580     1.2090    -0.9050 o          1 O5M      -0.547100
     29 H31          6.2840     3.5010    -0.7350 h4         1 O5M       0.019100
     30 H32          8.3860     2.2850    -0.1540 ha         1 O5M       0.122000
     31 H33          6.0050    -1.2590     0.4760 ha         1 O5M       0.136000
     32 H36          8.7830    -0.3690     1.6550 hc         1 O5M       0.047367
     33 H35          8.5350    -1.4300     0.2580 hc         1 O5M       0.047367
     34 H34          9.5060     0.0380     0.0900 hc         1 O5M       0.047367
     35 H37         -0.3860    -2.5480     0.6820 h1         1 O5M       0.058700
     36 H38         -0.0560    -2.7050    -1.0630 h1         1 O5M       0.058700
     37 H39         -1.6550    -4.3640    -0.7420 h1         1 O5M       0.054200
     38 H40         -2.5740    -3.4230     0.4590 h1         1 O5M       0.054200
     39 H42         -4.2090    -1.9060    -0.2880 h1         1 O5M       0.060700
     40 H41         -4.1630    -1.3080    -1.9510 h1         1 O5M       0.060700
     41 H43         -2.5690     0.2190    -1.5090 h1         1 O5M       0.058700
     42 H44         -3.0440    -0.5490     1.4210 hc         1 O5M       0.075700
     43 H45         -2.3710     0.9600     0.8900 hc         1 O5M       0.075700
     44 H46         -3.7540     2.3470    -0.9050 ha         1 O5M       0.123000
     45 H47         -5.9930     3.3790    -1.2000 ha         1 O5M       0.120000
     46 H48         -7.9810     2.4240    -0.0390 ha         1 O5M       0.119000
     47 H49         -7.7160     0.4210     1.4280 ha         1 O5M       0.132000
     48 H30          2.2990     1.6220    -0.7370 ha         1 O5M       0.172000
     49 H29          1.5750    -2.3900     0.2350 hn         1 O5M       0.382000
@<TRIPOS>BOND
     1     1    18 2   
     2     1    20 1   
     3     1    25 1   
     4     2     3 ar  
     5     2    24 ar  
     6     2    29 1   
     7     3     4 ar  
     8     3    30 1   
     9     4     5 ar  
    10     4     6 1   
    11     5    21 ar  
    12     5    31 1   
    13     6    32 1   
    14     6    33 1   
    15     6    34 1   
    16     7     8 1   
    17     7    26 1   
    18     7    35 1   
    19     7    36 1   
    20     8    27 1   
    21     8    37 1   
    22     8    38 1   
    23     9    10 1   
    24     9    27 1   
    25     9    39 1   
    26     9    40 1   
    27    10    11 1   
    28    10    26 1   
    29    10    41 1   
    30    11    12 1   
    31    11    42 1   
    32    11    43 1   
    33    12    13 ar  
    34    12    17 ar  
    35    13    14 ar  
    36    13    44 1   
    37    14    15 ar  
    38    14    45 1   
    39    15    16 ar  
    40    15    46 1   
    41    16    17 ar  
    42    16    47 1   
    43    17    22 1   
    44    18    19 1   
    45    18    48 1   
    46    19    21 1   
    47    19    23 2   
    48    20    26 1   
    49    20    28 2   
    50    21    24 ar  
    51    23    25 1   
    52    25    49 1   
@<TRIPOS>SUBSTRUCTURE
     1 O5M         1 TEMP              0 ****  ****    0 ROOT
