@<TRIPOS>MOLECULE
O5M
   49    52     1     0     0
SMALL
abcg2


@<TRIPOS>ATOM
      1 C3           1.2320     0.1750    -0.4450 cc         1 O5M      -0.240600
      2 C11          6.5040     1.8030    -0.9250 ca         1 O5M       0.340900
      3 C12          7.4790     1.0970    -0.2410 ca         1 O5M      -0.166000
      4 C13          7.1020     0.0110     0.5450 ca         1 O5M      -0.039300
      5 C14          5.7500    -0.3010     0.5900 ca         1 O5M      -0.138000
      6 C15          8.1090    -0.7750     1.3250 c3         1 O5M      -0.052800
      7 C16         -0.6420    -1.8140    -1.4960 c6         1 O5M       0.044000
      8 C17         -1.3880    -3.0260    -0.9970 c6         1 O5M       0.145600
      9 C19         -3.1510    -1.7110    -0.3010 c6         1 O5M       0.140600
     10 C20         -2.4810    -0.3940    -0.7100 c6         1 O5M       0.069700
     11 C21         -2.8930     0.6800     0.3110 c3         1 O5M      -0.038100
     12 C22         -4.3850     0.8820     0.3520 ca         1 O5M      -0.122300
     13 C23         -5.0280     1.5870    -0.6640 ca         1 O5M      -0.082000
     14 C24         -6.4010     1.7840    -0.6580 ca         1 O5M      -0.124000
     15 C25         -7.1670     1.2810     0.3850 ca         1 O5M      -0.083000
     16 C26         -6.5560     0.5810     1.4150 ca         1 O5M      -0.150000
     17 C27         -5.1870     0.3980     1.3750 ca         1 O5M       0.169000
     18 C4           2.3840     0.8230    -0.8250 cd         1 O5M      -0.111000
     19 C5           3.4040     0.1800    -0.1020 cd         1 O5M       0.179000
     20 C6          -0.1740     0.4560    -0.8070 c          1 O5M       0.632700
     21 C9           4.8400     0.4700    -0.1310 ca         1 O5M       0.323000
     22 F28         -4.6140    -0.2890     2.3810 f          1 O5M      -0.184000
     23 N1           2.9040    -0.7770     0.6700 nc         1 O5M      -0.501800
     24 N10          5.2120     1.5060    -0.8790 nb         1 O5M      -0.668000
     25 N2           1.6090    -0.7690     0.4460 na         1 O5M       0.024800
     26 N7          -1.0280    -0.6150    -0.7370 n          1 O5M      -0.411800
     27 O18         -2.7750    -2.8120    -1.0850 os         1 O5M      -0.437000
     28 O8          -0.5000     1.5950    -1.0800 o          1 O5M      -0.547100
     29 H31          6.7810     2.6510    -1.5420 h4         1 O5M       0.019100
     30 H32          8.5180     1.3930    -0.3240 ha         1 O5M       0.122000
     31 H33          5.4010    -1.1420     1.1750 ha         1 O5M       0.136000
     32 H36          8.3610    -0.2550     2.2520 hc         1 O5M       0.047367
     33 H35          7.7300    -1.7600     1.5930 hc         1 O5M       0.047367
     34 H34          9.0350    -0.9010     0.7660 hc         1 O5M       0.047367
     35 H37          0.4290    -1.9890    -1.4260 h1         1 O5M       0.058700
     36 H38         -0.8710    -1.6590    -2.5570 h1         1 O5M       0.058700
     37 H39         -1.1410    -3.8890    -1.6160 h1         1 O5M       0.054200
     38 H40         -1.0930    -3.2510     0.0380 h1         1 O5M       0.054200
     39 H42         -2.9220    -1.9020     0.7580 h1         1 O5M       0.060700
     40 H41         -4.2310    -1.6060    -0.4010 h1         1 O5M       0.060700
     41 H43         -2.8300    -0.1070    -1.7120 h1         1 O5M       0.058700
     42 H44         -2.5050     0.3990     1.2920 hc         1 O5M       0.075700
     43 H45         -2.4410     1.6340     0.0530 hc         1 O5M       0.075700
     44 H46         -4.4340     1.9940    -1.4740 ha         1 O5M       0.123000
     45 H47         -6.8700     2.3340    -1.4630 ha         1 O5M       0.120000
     46 H48         -8.2380     1.4320     0.4020 ha         1 O5M       0.119000
     47 H49         -7.1320     0.1810     2.2400 ha         1 O5M       0.132000
     48 H30          2.4760     1.6310    -1.5290 ha         1 O5M       0.172000
     49 H29          1.0060    -1.3890     0.9680 hn         1 O5M       0.382000
@<TRIPOS>BOND
     1     1    18 2   
     2     1    20 1   
     3     1    25 1   
     4     2     3 ar  
     5     2    24 ar  
     6     2    29 1   
     7     3     4 ar  
     8     3    30 1   
     9     4     5 ar  
    10     4     6 1   
    11     5    21 ar  
    12     5    31 1   
    13     6    32 1   
    14     6    33 1   
    15     6    34 1   
    16     7     8 1   
    17     7    26 1   
    18     7    35 1   
    19     7    36 1   
    20     8    27 1   
    21     8    37 1   
    22     8    38 1   
    23     9    10 1   
    24     9    27 1   
    25     9    39 1   
    26     9    40 1   
    27    10    11 1   
    28    10    26 1   
    29    10    41 1   
    30    11    12 1   
    31    11    42 1   
    32    11    43 1   
    33    12    13 ar  
    34    12    17 ar  
    35    13    14 ar  
    36    13    44 1   
    37    14    15 ar  
    38    14    45 1   
    39    15    16 ar  
    40    15    46 1   
    41    16    17 ar  
    42    16    47 1   
    43    17    22 1   
    44    18    19 1   
    45    18    48 1   
    46    19    21 1   
    47    19    23 2   
    48    20    26 1   
    49    20    28 2   
    50    21    24 ar  
    51    23    25 1   
    52    25    49 1   
@<TRIPOS>SUBSTRUCTURE
     1 O5M         1 TEMP              0 ****  ****    0 ROOT
