@<TRIPOS>MOLECULE
O5N
   44    45     1     0     0
SMALL
bcc


@<TRIPOS>ATOM
      1 C10        -16.6880    36.5930    40.2030 ca         1 O5N      -0.048000
      2 C12        -17.6150    36.8430    45.2940 c          1 O5N       0.793100
      3 C16        -19.4630    36.0050    47.8400 c3         1 O5N       0.133800
      4 C23        -24.1690    37.9390    46.1900 ca         1 O5N      -0.169000
      5 C24        -23.0540    38.2060    46.9590 ca         1 O5N       0.134900
      6 C22        -24.6490    36.6370    46.1440 ca         1 O5N      -0.103000
      7 C20        -22.8860    35.9440    47.6270 ca         1 O5N      -0.086000
      8 C21        -24.0060    35.6400    46.8640 ca         1 O5N      -0.149000
      9 C19        -22.3810    37.2390    47.6910 ca         1 O5N      -0.121300
     10 C18        -21.1790    37.5980    48.5360 c3         1 O5N       0.218100
     11 C05        -16.2350    35.4590    40.8620 ca         1 O5N      -0.239500
     12 C06        -16.2780    35.3430    42.2390 ca         1 O5N      -0.103000
     13 C07        -16.7770    36.3980    43.0090 ca         1 O5N       0.070600
     14 C08        -17.2210    37.5510    42.3590 ca         1 O5N      -0.090000
     15 C09        -17.1780    37.6330    40.9740 ca         1 O5N      -0.124000
     16 C15        -18.2370    36.9060    47.6600 c3         1 O5N       0.076000
     17 N01        -14.1640    34.7090    39.3990 n8         1 O5N      -0.889700
     18 N11        -16.7610    36.2430    44.3900 ns         1 O5N      -0.496100
     19 N14        -17.3830    36.4820    46.5750 ns         1 O5N      -0.585900
     20 N17        -20.3800    36.4390    48.8740 n7         1 O5N      -0.820200
     21 O03        -15.4790    32.9520    40.7820 o          1 O5N      -0.615300
     22 O04        -16.4230    33.9560    38.6980 o          1 O5N      -0.615300
     23 O13        -18.4830    37.6370    44.9660 o          1 O5N      -0.615100
     24 S02        -15.6170    34.1050    39.9010 sy         1 O5N       1.262200
     25 H1         -16.6570    36.6730    39.1250 ha         1 O5N       0.156000
     26 H2         -20.0090    35.9470    46.8950 h1         1 O5N       0.061700
     27 H3         -19.1260    34.9900    48.0670 h1         1 O5N       0.061700
     28 H4         -24.6510    38.7350    45.6370 ha         1 O5N       0.148000
     29 H5         -25.5230    36.4100    45.5480 ha         1 O5N       0.134000
     30 H6         -22.3810    35.1670    48.1850 ha         1 O5N       0.150000
     31 H7         -24.3750    34.6230    46.8310 ha         1 O5N       0.134000
     32 H8         -20.6080    38.3870    48.0290 h1         1 O5N       0.048200
     33 H9         -21.5320    38.0460    49.4690 h1         1 O5N       0.048200
     34 H10        -15.9310    34.4410    42.7260 ha         1 O5N       0.150000
     35 H11        -17.5920    38.3930    42.9210 ha         1 O5N       0.166000
     36 H12        -17.5300    38.5350    40.4920 ha         1 O5N       0.140000
     37 H13        -17.6390    36.8990    48.5720 h1         1 O5N       0.056700
     38 H14        -18.5400    37.9390    47.4890 h1         1 O5N       0.056700
     39 H15        -13.4730    34.7330    40.1420 hn         1 O5N       0.416800
     40 H16        -13.8050    34.1880    38.6040 hn         1 O5N       0.416800
     41 H17        -16.1920    35.4830    44.7290 hn         1 O5N       0.311500
     42 H18        -16.6880    35.7820    46.7780 hn         1 O5N       0.310500
     43 H19        -19.8880    36.5990    49.7420 hn         1 O5N       0.363800
     44 F25        -22.6010    39.4750    47.0020 f          1 O5N      -0.150900
@<TRIPOS>BOND
     1     1    11 ar  
     2     1    15 ar  
     3     1    25 1   
     4     2    18 1   
     5     2    19 1   
     6     2    23 2   
     7     3    16 1   
     8     3    20 1   
     9     3    26 1   
    10     3    27 1   
    11     4     5 ar  
    12     4     6 ar  
    13     4    28 1   
    14     5     9 ar  
    15     5    44 1   
    16     6     8 ar  
    17     6    29 1   
    18     7     8 ar  
    19     7     9 ar  
    20     7    30 1   
    21     8    31 1   
    22     9    10 1   
    23    10    20 1   
    24    10    32 1   
    25    10    33 1   
    26    11    12 ar  
    27    11    24 1   
    28    12    13 ar  
    29    12    34 1   
    30    13    14 ar  
    31    13    18 1   
    32    14    15 ar  
    33    14    35 1   
    34    15    36 1   
    35    16    19 1   
    36    16    37 1   
    37    16    38 1   
    38    17    24 1   
    39    17    39 1   
    40    17    40 1   
    41    18    41 1   
    42    19    42 1   
    43    20    43 1   
    44    21    24 2   
    45    22    24 2   
@<TRIPOS>SUBSTRUCTURE
     1 O5N         1 TEMP              0 ****  ****    0 ROOT
