@<TRIPOS>MOLECULE
O5N
   44    45     1     0     0
SMALL
No Charge or Current Charge


@<TRIPOS>ATOM
      1 C10        -17.1550    35.8130    39.8650 ca         1 O5N      -0.030000
      2 C12        -18.1680    36.3720    45.0490 c          1 O5N       0.659100
      3 C16        -19.7150    35.6030    47.7800 c3         1 O5N       0.133800
      4 C23        -23.0140    38.6050    46.1560 ca         1 O5N      -0.151000
      5 C24        -22.0340    38.4390    47.1480 ca         1 O5N       0.170000
      6 C22        -24.1170    37.7360    46.1020 ca         1 O5N      -0.085000
      7 C20        -23.2550    36.5340    48.0390 ca         1 O5N      -0.068000
      8 C21        -24.2360    36.7010    47.0450 ca         1 O5N      -0.131000
      9 C19        -22.1430    37.4000    48.0990 ca         1 O5N      -0.121300
     10 C18        -21.0890    37.2020    49.1850 c3         1 O5N       0.218100
     11 C05        -16.0610    35.3520    40.6240 ca         1 O5N      -0.239500
     12 C06        -16.1210    35.4060    42.0350 ca         1 O5N      -0.085000
     13 C07        -17.2600    35.9120    42.6910 ca         1 O5N      -0.022000
     14 C08        -18.3500    36.3690    41.9160 ca         1 O5N      -0.072000
     15 C09        -18.2930    36.3180    40.5120 ca         1 O5N      -0.106000
     16 C15        -18.5020    36.5410    47.5420 c3         1 O5N       0.076000
     17 N01        -13.7020    36.0610    39.5860 n8         1 O5N      -1.000100
     18 N11        -17.2450    35.9310    44.1140 ns         1 O5N      -0.170000
     19 N14        -17.7330    36.1880    46.3410 ns         1 O5N      -0.518900
     20 N17        -20.4140    35.8880    49.0620 n7         1 O5N      -0.875400
     21 O03        -13.8040    33.9070    40.7220 o          1 O5N      -0.544500
     22 O04        -14.9290    34.2580    38.4390 o          1 O5N      -0.544500
     23 O13        -19.2520    36.8730    44.7890 o          1 O5N      -0.615100
     24 S02        -14.5980    34.7070    39.7920 sy         1 O5N       1.120600
     25 H1         -17.1270    35.7820    38.7760 ha         1 O5N       0.138000
     26 H2         -20.4080    35.6900    46.9320 h1         1 O5N       0.061700
     27 H3         -19.3470    34.5680    47.7840 h1         1 O5N       0.061700
     28 H4         -22.9170    39.4080    45.4300 ha         1 O5N       0.130000
     29 H5         -24.8770    37.8640    45.3330 ha         1 O5N       0.116000
     30 H6         -23.3540    35.7280    48.7620 ha         1 O5N       0.132000
     31 H7         -25.0890    36.0270    47.0060 ha         1 O5N       0.116000
     32 H8         -20.3530    38.0170    49.1560 h1         1 O5N       0.048200
     33 H9         -21.5880    37.2720    50.1610 h1         1 O5N       0.048200
     34 H10        -15.2790    35.0510    42.6270 ha         1 O5N       0.132000
     35 H11        -19.2480    36.7650    42.3780 ha         1 O5N       0.148000
     36 H12        -19.1360    36.6720    39.9230 ha         1 O5N       0.122000
     37 H13        -17.8300    36.4920    48.4090 h1         1 O5N       0.056700
     38 H14        -18.8490    37.5780    47.4430 h1         1 O5N       0.056700
     39 H15        -14.0960    36.6900    40.2820 hn         1 O5N       0.472000
     40 H16        -12.8170    35.7700    39.9950 hn         1 O5N       0.472000
     41 H17        -16.4000    35.5480    44.5150 hn         1 O5N       0.145000
     42 H18        -16.8180    35.7700    46.4620 hn         1 O5N       0.310500
     43 H19        -19.7390    35.7990    49.8330 hn         1 O5N       0.419000
     44 F25        -20.9870    39.2950    47.1800 f          1 O5N      -0.186000
@<TRIPOS>BOND
     1     1    11 ar  
     2     1    15 ar  
     3     1    25 1   
     4     2    18 1   
     5     2    19 1   
     6     2    23 2   
     7     3    16 1   
     8     3    20 1   
     9     3    26 1   
    10     3    27 1   
    11     4     5 ar  
    12     4     6 ar  
    13     4    28 1   
    14     5     9 ar  
    15     5    44 1   
    16     6     8 ar  
    17     6    29 1   
    18     7     8 ar  
    19     7     9 ar  
    20     7    30 1   
    21     8    31 1   
    22     9    10 1   
    23    10    20 1   
    24    10    32 1   
    25    10    33 1   
    26    11    12 ar  
    27    11    24 1   
    28    12    13 ar  
    29    12    34 1   
    30    13    14 ar  
    31    13    18 1   
    32    14    15 ar  
    33    14    35 1   
    34    15    36 1   
    35    16    19 1   
    36    16    37 1   
    37    16    38 1   
    38    17    24 1   
    39    17    39 1   
    40    17    40 1   
    41    18    41 1   
    42    19    42 1   
    43    20    43 1   
    44    21    24 2   
    45    22    24 2   
@<TRIPOS>SUBSTRUCTURE
     1 O5N         1 TEMP              0 ****  ****    0 ROOT
