@<TRIPOS>MOLECULE
O5O
   76    81     1     0     0
SMALL
No Charge or Current Charge


@<TRIPOS>ATOM
      1 N1         -13.0440    42.1690   -18.0060 na         1 O5O      -0.158600
      2 C7         -14.7240    40.7350   -16.7320 ca         1 O5O      -0.158900
      3 C8         -15.1150    39.7060   -17.6260 ca         1 O5O       0.010000
      4 N2         -15.4420    39.4070   -14.8260 nb         1 O5O      -0.653000
      5 C9         -15.0240    39.8300   -19.0310 ca         1 O5O      -0.103000
      6 O1         -11.6180    42.7260   -20.8560 o          1 O5O      -0.610100
      7 C1         -10.5190    41.4600   -17.8570 cy         1 O5O      -0.078400
      8 C5         -11.8390    39.8740   -17.3410 cy         1 O5O      -0.078400
      9 C6         -14.1640    42.0110   -17.1640 cc         1 O5O       0.481400
     10 N3         -14.6140    43.1910   -16.7050 nd         1 O5O      -0.564100
     11 C4          -8.7500    37.6650   -15.2220 c3         1 O5O       0.097300
     12 C3          -9.6550    39.6520   -16.4780 c          1 O5O       0.602100
     13 C2         -10.3610    39.8930   -17.8780 cy         1 O5O      -0.170700
     14 N4         -10.0580    44.3120   -20.3920 ns         1 O5O      -0.497900
     15 N           -9.4190    38.3010   -16.3600 ns         1 O5O      -0.505900
     16 C          -12.0140    41.1530   -18.2550 cy         1 O5O       0.049300
     17 O           -9.2910    40.3860   -15.5660 o          1 O5O      -0.599100
     18 C10        -15.4080    38.7640   -19.8630 ca         1 O5O      -0.089000
     19 C11        -15.8960    37.5720   -19.3040 ca         1 O5O      -0.114000
     20 C12        -16.0130    37.4470   -17.9100 ca         1 O5O      -0.079000
     21 C13        -15.6310    38.5140   -17.0730 ca         1 O5O      -0.105000
     22 C14        -15.7680    38.4090   -15.6760 ca         1 O5O       0.377900
     23 C15        -14.9430    40.5460   -15.3570 ca         1 O5O       0.372900
     24 C16        -13.8420    44.1220   -17.3800 ca         1 O5O       0.061400
     25 C17        -12.9440    43.5270   -18.2290 ca         1 O5O      -0.035200
     26 C18        -12.1280    44.2890   -19.1060 ca         1 O5O      -0.152600
     27 C19        -11.2600    43.6770   -20.1760 c          1 O5O       0.617700
     28 C20         -9.0250    43.8310   -21.3090 c3         1 O5O       0.151000
     29 C21         -8.0880    44.9790   -21.7550 c3         1 O5O      -0.082400
     30 C22         -8.8020    46.0880   -22.5650 c3         1 O5O      -0.075400
     31 C23         -7.8450    47.2010   -23.0340 c3         1 O5O      -0.090100
     32 C24         -8.2740    42.6650   -20.6660 ca         1 O5O      -0.077300
     33 C25         -7.4430    42.8630   -19.5440 ca         1 O5O      -0.104000
     34 C26         -6.8280    41.7710   -18.9080 ca         1 O5O      -0.064500
     35 C27         -7.0350    40.4570   -19.3800 ca         1 O5O      -0.186300
     36 C28         -6.3820    39.2620   -18.6760 c3         1 O5O       0.342300
     37 C29         -7.8480    40.2630   -20.5170 ca         1 O5O      -0.064500
     38 C30         -8.4650    41.3560   -21.1480 ca         1 O5O      -0.104000
     39 C31        -12.2050    45.7010   -18.9900 ca         1 O5O      -0.076000
     40 C32        -13.0940    46.3070   -18.0760 ca         1 O5O      -0.142000
     41 C33        -13.9370    45.5150   -17.2750 ca         1 O5O      -0.028000
     42 F           -7.1180    38.1330   -18.7880 f          1 O5O      -0.111000
     43 F1          -6.2080    39.4770   -17.3510 f          1 O5O      -0.111000
     44 F2          -5.1630    38.9930   -19.1950 f          1 O5O      -0.111000
     45 H1         -14.6690    40.7440   -19.4960 ha         1 O5O       0.129000
     46 H2         -10.4400    42.0080   -16.9110 hc         1 O5O       0.074700
     47 H3          -9.9210    41.9890   -18.5990 hc         1 O5O       0.074700
     48 H4         -12.4270    38.9960   -17.6290 hc         1 O5O       0.074700
     49 H5         -12.0010    40.0630   -16.2700 hc         1 O5O       0.074700
     50 H6          -8.6950    36.5810   -15.3880 h1         1 O5O       0.043700
     51 H7          -7.7340    38.0670   -15.1190 h1         1 O5O       0.043700
     52 H8          -9.3160    37.8610   -14.3020 h1         1 O5O       0.043700
     53 H9         -10.0580    39.3410   -18.7740 hc         1 O5O       0.060700
     54 H10         -9.8430    45.0940   -19.7890 hn         1 O5O       0.319500
     55 H11         -9.7230    37.7180   -17.1310 hn         1 O5O       0.309500
     56 H12        -12.1270    40.8730   -19.3090 h1         1 O5O       0.100700
     57 H13        -15.3310    38.8650   -20.9430 ha         1 O5O       0.117000
     58 H14        -16.1940    36.7500   -19.9510 ha         1 O5O       0.117000
     59 H15        -16.4060    36.5260   -17.4840 ha         1 O5O       0.118000
     60 H16        -16.1660    37.5020   -15.2220 h4         1 O5O       0.022100
     61 H17        -14.6800    41.3240   -14.6410 h4         1 O5O       0.029100
     62 H18         -9.5260    43.4570   -22.2140 h1         1 O5O       0.089700
     63 H19         -7.2860    44.5540   -22.3710 hc         1 O5O       0.049200
     64 H20         -7.6080    45.4290   -20.8780 hc         1 O5O       0.049200
     65 H21         -9.5950    46.5390   -21.9570 hc         1 O5O       0.044700
     66 H22         -9.2870    45.6420   -23.4430 hc         1 O5O       0.044700
     67 H23         -8.3930    47.9610   -23.6030 hc         1 O5O       0.035033
     68 H24         -7.3690    47.6910   -22.1760 hc         1 O5O       0.035033
     69 H25         -7.0590    46.7900   -23.6790 hc         1 O5O       0.035033
     70 H26         -7.2920    43.8620   -19.1430 ha         1 O5O       0.125000
     71 H27         -6.1990    41.9510   -18.0390 ha         1 O5O       0.130500
     72 H28         -8.0170    39.2620   -20.9090 ha         1 O5O       0.130500
     73 H29         -9.1120    41.1790   -22.0050 ha         1 O5O       0.125000
     74 H30        -11.6080    46.3400   -19.6370 ha         1 O5O       0.114000
     75 H31        -13.1510    47.3910   -18.0130 ha         1 O5O       0.120000
     76 H32        -14.6500    45.9720   -16.5920 ha         1 O5O       0.134000
@<TRIPOS>BOND
     1     1     9 1   
     2     1    16 1   
     3     1    25 1   
     4     2     3 ar  
     5     2     9 1   
     6     2    23 ar  
     7     3     5 ar  
     8     3    21 ar  
     9     4    22 ar  
    10     4    23 ar  
    11     5    18 ar  
    12     5    45 1   
    13     6    27 2   
    14     7    13 1   
    15     7    16 1   
    16     7    46 1   
    17     7    47 1   
    18     8    13 1   
    19     8    16 1   
    20     8    48 1   
    21     8    49 1   
    22     9    10 2   
    23    10    24 1   
    24    11    15 1   
    25    11    50 1   
    26    11    51 1   
    27    11    52 1   
    28    12    13 1   
    29    12    15 1   
    30    12    17 2   
    31    13    53 1   
    32    14    27 1   
    33    14    28 1   
    34    14    54 1   
    35    15    55 1   
    36    16    56 1   
    37    18    19 ar  
    38    18    57 1   
    39    19    20 ar  
    40    19    58 1   
    41    20    21 ar  
    42    20    59 1   
    43    21    22 ar  
    44    22    60 1   
    45    23    61 1   
    46    24    25 ar  
    47    24    41 ar  
    48    25    26 ar  
    49    26    27 1   
    50    26    39 ar  
    51    28    29 1   
    52    28    32 1   
    53    28    62 1   
    54    29    30 1   
    55    29    63 1   
    56    29    64 1   
    57    30    31 1   
    58    30    65 1   
    59    30    66 1   
    60    31    67 1   
    61    31    68 1   
    62    31    69 1   
    63    32    33 ar  
    64    32    38 ar  
    65    33    34 ar  
    66    33    70 1   
    67    34    35 ar  
    68    34    71 1   
    69    35    36 1   
    70    35    37 ar  
    71    36    42 1   
    72    36    43 1   
    73    36    44 1   
    74    37    38 ar  
    75    37    72 1   
    76    38    73 1   
    77    39    40 ar  
    78    39    74 1   
    79    40    41 ar  
    80    40    75 1   
    81    41    76 1   
@<TRIPOS>SUBSTRUCTURE
     1 O5O         1 TEMP              0 ****  ****    0 ROOT
