@<TRIPOS>MOLECULE
O5O
   76    81     1     0     0
SMALL
abcg2


@<TRIPOS>ATOM
      1 N1         -13.0110    42.2060   -18.2830 na         1 O5O      -0.158600
      2 C7         -14.2930    40.8810   -16.5520 ca         1 O5O      -0.158900
      3 C8         -15.1990    39.9240   -17.0850 ca         1 O5O       0.010000
      4 N2         -13.9920    39.5640   -14.5580 nb         1 O5O      -0.653000
      5 C9         -15.8280    40.0500   -18.3440 ca         1 O5O      -0.103000
      6 O1         -11.4020    42.7670   -21.3160 o          1 O5O      -0.610100
      7 C1         -10.6860    41.1090   -17.9310 cy         1 O5O      -0.078400
      8 C5         -12.1960    39.6970   -18.5430 cy         1 O5O      -0.078400
      9 C6         -13.9740    42.1140   -17.2990 cc         1 O5O       0.481400
     10 N3         -14.6160    43.2430   -17.1010 nd         1 O5O      -0.564100
     11 C4          -8.5770    36.7590   -16.9920 c3         1 O5O       0.097300
     12 C3         -10.1370    38.6140   -17.3730 c          1 O5O       0.602100
     13 C2         -10.6540    39.6210   -18.3690 cy         1 O5O      -0.170700
     14 N4          -9.9920    44.2740   -20.3690 ns         1 O5O      -0.497900
     15 N           -9.1880    37.7770   -17.8260 ns         1 O5O      -0.505900
     16 C          -12.0180    41.2200   -18.6970 cy         1 O5O       0.049300
     17 O          -10.5670    38.5570   -16.2170 o          1 O5O      -0.599100
     18 C10        -16.6800    39.0700   -18.7880 ca         1 O5O      -0.089000
     19 C11        -16.9420    37.9250   -18.0030 ca         1 O5O      -0.114000
     20 C12        -16.3430    37.7770   -16.7790 ca         1 O5O      -0.079000
     21 C13        -15.4610    38.7710   -16.2960 ca         1 O5O      -0.105000
     22 C14        -14.8140    38.6610   -15.0420 ca         1 O5O       0.377900
     23 C15        -13.7420    40.6630   -15.3140 ca         1 O5O       0.372900
     24 C16        -14.0540    44.1530   -17.9770 ca         1 O5O       0.061400
     25 C17        -13.0390    43.5240   -18.7340 ca         1 O5O      -0.035200
     26 C18        -12.2770    44.2590   -19.6580 ca         1 O5O      -0.152600
     27 C19        -11.1920    43.6860   -20.5200 c          1 O5O       0.617700
     28 C20         -8.7770    43.8050   -21.0340 c3         1 O5O       0.151000
     29 C21         -7.9000    44.9890   -21.4480 c3         1 O5O      -0.082400
     30 C22         -8.5480    45.8800   -22.5040 c3         1 O5O      -0.075400
     31 C23         -7.6520    47.0490   -22.9060 c3         1 O5O      -0.090100
     32 C24         -8.0560    42.8190   -20.1340 ca         1 O5O      -0.077300
     33 C25         -7.5630    43.2210   -18.8890 ca         1 O5O      -0.104000
     34 C26         -6.9580    42.3100   -18.0410 ca         1 O5O      -0.064500
     35 C27         -6.8340    40.9760   -18.4330 ca         1 O5O      -0.186300
     36 C28         -6.2090    40.0050   -17.4790 c3         1 O5O       0.342300
     37 C29         -7.3060    40.5660   -19.6720 ca         1 O5O      -0.064500
     38 C30         -7.9160    41.4890   -20.5150 ca         1 O5O      -0.104000
     39 C31        -12.5850    45.6120   -19.7910 ca         1 O5O      -0.076000
     40 C32        -13.6110    46.2250   -19.0610 ca         1 O5O      -0.142000
     41 C33        -14.3560    45.5030   -18.1450 ca         1 O5O      -0.028000
     42 F           -6.0220    38.7830   -18.0140 f          1 O5O      -0.111000
     43 F1          -6.9630    39.8300   -16.3630 f          1 O5O      -0.111000
     44 F2          -4.9970    40.4290   -17.0410 f          1 O5O      -0.111000
     45 H1         -15.6320    40.9220   -18.9550 ha         1 O5O       0.129000
     46 H2         -10.8460    41.1840   -16.8550 hc         1 O5O       0.074700
     47 H3          -9.8650    41.7490   -18.2400 hc         1 O5O       0.074700
     48 H4         -12.6470    39.1610   -19.3760 hc         1 O5O       0.074700
     49 H5         -12.6680    39.4090   -17.6110 hc         1 O5O       0.074700
     50 H6          -7.8430    36.2210   -17.5870 h1         1 O5O       0.043700
     51 H7          -8.0770    37.2080   -16.1320 h1         1 O5O       0.043700
     52 H8          -9.3270    36.0560   -16.6270 h1         1 O5O       0.043700
     53 H9         -10.1550    39.5170   -19.3310 hc         1 O5O       0.060700
     54 H10         -9.8950    44.9730   -19.6480 hn         1 O5O       0.319500
     55 H11         -8.8610    37.8840   -18.7720 hn         1 O5O       0.309500
     56 H12        -11.8170    41.4230   -19.7420 h1         1 O5O       0.100700
     57 H13        -17.1600    39.1720   -19.7540 ha         1 O5O       0.117000
     58 H14        -17.6170    37.1660   -18.3760 ha         1 O5O       0.117000
     59 H15        -16.5340    36.9040   -16.1670 ha         1 O5O       0.118000
     60 H16        -15.0020    37.7820   -14.4320 h4         1 O5O       0.022100
     61 H17        -13.0520    41.3850   -14.8940 h4         1 O5O       0.029100
     62 H18         -9.1030    43.2750   -21.9270 h1         1 O5O       0.089700
     63 H19         -6.9580    44.5870   -21.8310 hc         1 O5O       0.049200
     64 H20         -7.6510    45.5820   -20.5620 hc         1 O5O       0.049200
     65 H21         -9.5010    46.2610   -22.1250 hc         1 O5O       0.044700
     66 H22         -8.7840    45.2750   -23.3850 hc         1 O5O       0.044700
     67 H23         -8.1330    47.6750   -23.6600 hc         1 O5O       0.035033
     68 H24         -7.4230    47.6800   -22.0430 hc         1 O5O       0.035033
     69 H25         -6.7050    46.6940   -23.3200 hc         1 O5O       0.035033
     70 H26         -7.6680    44.2500   -18.5700 ha         1 O5O       0.125000
     71 H27         -6.5890    42.6300   -17.0750 ha         1 O5O       0.130500
     72 H28         -7.2140    39.5330   -19.9770 ha         1 O5O       0.130500
     73 H29         -8.3000    41.1640   -21.4740 ha         1 O5O       0.125000
     74 H30        -12.0170    46.2020   -20.4990 ha         1 O5O       0.114000
     75 H31        -13.8140    47.2760   -19.2180 ha         1 O5O       0.120000
     76 H32        -15.1430    45.9650   -17.5620 ha         1 O5O       0.134000
@<TRIPOS>BOND
     1     1     9 1   
     2     1    16 1   
     3     1    25 1   
     4     2     3 ar  
     5     2     9 1   
     6     2    23 ar  
     7     3     5 ar  
     8     3    21 ar  
     9     4    22 ar  
    10     4    23 ar  
    11     5    18 ar  
    12     5    45 1   
    13     6    27 2   
    14     7    13 1   
    15     7    16 1   
    16     7    46 1   
    17     7    47 1   
    18     8    13 1   
    19     8    16 1   
    20     8    48 1   
    21     8    49 1   
    22     9    10 2   
    23    10    24 1   
    24    11    15 1   
    25    11    50 1   
    26    11    51 1   
    27    11    52 1   
    28    12    13 1   
    29    12    15 1   
    30    12    17 2   
    31    13    53 1   
    32    14    27 1   
    33    14    28 1   
    34    14    54 1   
    35    15    55 1   
    36    16    56 1   
    37    18    19 ar  
    38    18    57 1   
    39    19    20 ar  
    40    19    58 1   
    41    20    21 ar  
    42    20    59 1   
    43    21    22 ar  
    44    22    60 1   
    45    23    61 1   
    46    24    25 ar  
    47    24    41 ar  
    48    25    26 ar  
    49    26    27 1   
    50    26    39 ar  
    51    28    29 1   
    52    28    32 1   
    53    28    62 1   
    54    29    30 1   
    55    29    63 1   
    56    29    64 1   
    57    30    31 1   
    58    30    65 1   
    59    30    66 1   
    60    31    67 1   
    61    31    68 1   
    62    31    69 1   
    63    32    33 ar  
    64    32    38 ar  
    65    33    34 ar  
    66    33    70 1   
    67    34    35 ar  
    68    34    71 1   
    69    35    36 1   
    70    35    37 ar  
    71    36    42 1   
    72    36    43 1   
    73    36    44 1   
    74    37    38 ar  
    75    37    72 1   
    76    38    73 1   
    77    39    40 ar  
    78    39    74 1   
    79    40    41 ar  
    80    40    75 1   
    81    41    76 1   
@<TRIPOS>SUBSTRUCTURE
     1 O5O         1 TEMP              0 ****  ****    0 ROOT
