@<TRIPOS>MOLECULE
O5P
   49    52     1     0     0
SMALL
bcc


@<TRIPOS>ATOM
      1 C1           6.9740     0.0980    -0.3850 ca         1 O5P      -0.027300
      2 C2           7.2800     0.7050     0.8280 ca         1 O5P      -0.247300
      3 C3           6.2480     1.0550     1.6850 ca         1 O5P       0.416200
      4 C11          2.1520     0.4120     0.8040 cc         1 O5P      -0.202300
      5 C15         -1.0540    -2.1190    -0.0500 c6         1 O5P       0.059000
      6 C16         -1.5640    -2.7580     1.2330 c6         1 O5P       0.097400
      7 C18         -3.2130    -1.1040     1.4630 c6         1 O5P       0.102400
      8 C19         -2.7550    -0.4490     0.1650 c6         1 O5P       0.069700
      9 C20         -3.2360     0.9960     0.0030 c3         1 O5P      -0.028100
     10 C21         -4.7080     1.0350    -0.3200 ca         1 O5P      -0.085300
     11 C22         -5.6490     1.3210     0.6650 ca         1 O5P      -0.125000
     12 C23         -7.0070     1.3410     0.3710 ca         1 O5P      -0.127500
     13 C24         -7.4430     1.0790    -0.9200 ca         1 O5P      -0.128000
     14 C25         -6.5130     0.7980    -1.9140 ca         1 O5P      -0.127500
     15 C26         -5.1580     0.7760    -1.6130 ca         1 O5P      -0.125000
     16 C27          8.0370    -0.2820    -1.3670 c3         1 O5P      -0.055800
     17 C10          1.0360    -0.0420     0.0860 cc         1 O5P       0.244800
     18 C5           4.6630     0.2590     0.2630 ca         1 O5P       0.492800
     19 C6           5.6290    -0.1260    -0.6610 ca         1 O5P      -0.249300
     20 C7           3.2340     0.0520     0.0310 cd         1 O5P      -0.174800
     21 N13         -1.3140    -0.6800     0.0010 n          1 O5P      -0.452800
     22 N4           4.9690     0.8420     1.4210 nb         1 O5P      -0.656000
     23 N8           2.7160    -0.5570    -1.0590 na         1 O5P       0.011400
     24 N9           1.4010    -0.6240    -1.0480 nd         1 O5P      -0.487800
     25 O14         -0.6420     1.1930     1.1150 o          1 O5P      -0.584100
     26 O17         -2.9290    -2.4860     1.4580 os         1 O5P      -0.399600
     27 H28          8.3060     0.9020     1.1090 ha         1 O5P       0.144000
     28 H29          6.4710     1.5300     2.6340 h4         1 O5P       0.024100
     29 H32          2.1710     0.9250     1.7510 ha         1 O5P       0.192000
     30 H33          0.0050    -2.3270    -0.1640 h1         1 O5P       0.070200
     31 H34         -1.5650    -2.5370    -0.9200 h1         1 O5P       0.070200
     32 H35         -1.4550    -3.8420     1.1760 h1         1 O5P       0.051700
     33 H36         -0.9540    -2.4020     2.0760 h1         1 O5P       0.051700
     34 H38         -2.7330    -0.6010     2.3150 h1         1 O5P       0.060700
     35 H37         -4.2940    -1.0060     1.5820 h1         1 O5P       0.060700
     36 H39         -3.2070    -1.0180    -0.6570 h1         1 O5P       0.065700
     37 H40         -3.0430     1.5800     0.9000 hc         1 O5P       0.071200
     38 H41         -2.6770     1.4620    -0.8110 hc         1 O5P       0.071200
     39 H42         -5.3160     1.5340     1.6750 ha         1 O5P       0.130500
     40 H43         -7.7230     1.5650     1.1520 ha         1 O5P       0.129500
     41 H44         -8.5000     1.0970    -1.1520 ha         1 O5P       0.129000
     42 H45         -6.8430     0.5980    -2.9250 ha         1 O5P       0.129500
     43 H46         -4.4390     0.5640    -2.3970 ha         1 O5P       0.130500
     44 H49          8.1130     0.4720    -2.1530 hc         1 O5P       0.050367
     45 H47          9.0120    -0.3600    -0.8890 hc         1 O5P       0.050367
     46 H48          7.8120    -1.2320    -1.8500 hc         1 O5P       0.050367
     47 H30          5.3520    -0.5990    -1.5960 ha         1 O5P       0.131000
     48 H31          3.2120    -0.9460    -1.8460 hn         1 O5P       0.322700
     49 C12         -0.3820     0.1940     0.4610 c          1 O5P       0.600600
@<TRIPOS>BOND
     1     1     2 ar  
     2     1    16 1   
     3     1    19 ar  
     4     2     3 ar  
     5     2    27 1   
     6     3    22 ar  
     7     3    28 1   
     8     4    17 1   
     9     4    20 2   
    10     4    29 1   
    11     5     6 1   
    12     5    21 1   
    13     5    30 1   
    14     5    31 1   
    15     6    26 1   
    16     6    32 1   
    17     6    33 1   
    18     7     8 1   
    19     7    26 1   
    20     7    34 1   
    21     7    35 1   
    22     8     9 1   
    23     8    21 1   
    24     8    36 1   
    25     9    10 1   
    26     9    37 1   
    27     9    38 1   
    28    10    11 ar  
    29    10    15 ar  
    30    11    12 ar  
    31    11    39 1   
    32    12    13 ar  
    33    12    40 1   
    34    13    14 ar  
    35    13    41 1   
    36    14    15 ar  
    37    14    42 1   
    38    15    43 1   
    39    16    44 1   
    40    16    45 1   
    41    16    46 1   
    42    17    24 2   
    43    17    49 1   
    44    18    19 ar  
    45    18    20 1   
    46    18    22 ar  
    47    19    47 1   
    48    20    23 1   
    49    21    49 1   
    50    23    24 1   
    51    23    48 1   
    52    25    49 2   
@<TRIPOS>SUBSTRUCTURE
     1 O5P         1 TEMP              0 ****  ****    0 ROOT
