@<TRIPOS>MOLECULE
O5P
   49    52     1     0     0
SMALL
No Charge or Current Charge


@<TRIPOS>ATOM
      1 C1           7.1510     0.3790    -0.0440 ca         1 O5P      -0.027300
      2 C2           7.2110     1.7110    -0.4830 ca         1 O5P      -0.164000
      3 C3           6.0200     2.3840    -0.7980 ca         1 O5P       0.350900
      4 C11          2.1830     0.5150    -0.4800 cc         1 O5P      -0.119000
      5 C15         -1.0860    -2.4410     0.0500 c6         1 O5P       0.059000
      6 C16         -2.3200    -3.3670     0.0340 c6         1 O5P       0.120600
      7 C18         -3.8250    -1.6850    -0.6850 c6         1 O5P       0.125600
      8 C19         -2.7770    -0.5530    -0.4120 c6         1 O5P       0.069700
      9 C20         -3.2290     0.2630     0.8400 c3         1 O5P      -0.028100
     10 C21         -4.6150     0.8860     0.7020 ca         1 O5P      -0.085300
     11 C22         -5.6790     0.4570     1.5210 ca         1 O5P      -0.107000
     12 C23         -6.9550     1.0300     1.3850 ca         1 O5P      -0.109500
     13 C24         -7.1760     2.0370     0.4310 ca         1 O5P      -0.110000
     14 C25         -6.1190     2.4720    -0.3870 ca         1 O5P      -0.109500
     15 C26         -4.8430     1.8990    -0.2510 ca         1 O5P      -0.107000
     16 C27          8.4130    -0.3920     0.3050 c3         1 O5P      -0.055800
     17 C10          1.1650    -0.4300    -0.2370 cc         1 O5P       0.179500
     18 C5           4.7340     0.5240    -0.2810 ca         1 O5P       0.427500
     19 C6           5.8840    -0.2200     0.0550 ca         1 O5P      -0.166000
     20 C7           3.3840    -0.0630    -0.1890 cd         1 O5P      -0.225500
     21 N13         -1.3370    -0.9920    -0.2630 n          1 O5P      -0.385800
     22 N4           4.8010     1.8080    -0.7000 nb         1 O5P      -0.656000
     23 N8           3.0440    -1.3560     0.2320 na         1 O5P       0.011800
     24 N9           1.6690    -1.5810     0.2020 nd         1 O5P      -0.487800
     25 O14         -0.5750     1.0950    -0.8460 o          1 O5P      -0.584100
     26 O17         -3.2130    -2.9450    -1.0030 os         1 O5P      -0.446000
     27 H28          8.1630     2.2250    -0.5830 ha         1 O5P       0.126000
     28 H29          6.0420     3.4180    -1.1400 h4         1 O5P       0.024100
     29 H32          2.0190     1.5270    -0.8390 ha         1 O5P       0.174000
     30 H33         -0.6080    -2.5240     1.0370 h1         1 O5P       0.070200
     31 H34         -0.3820    -2.8360    -0.6950 h1         1 O5P       0.070200
     32 H35         -2.0080    -4.4060    -0.1490 h1         1 O5P       0.051700
     33 H36         -2.8390    -3.3310     1.0030 h1         1 O5P       0.051700
     34 H38         -4.4690    -1.8340     0.1950 h1         1 O5P       0.060700
     35 H37         -4.4810    -1.3870    -1.5150 h1         1 O5P       0.060700
     36 H39         -2.8280     0.1230    -1.2770 h1         1 O5P       0.065700
     37 H40         -3.1880    -0.3820     1.7270 hc         1 O5P       0.071200
     38 H41         -2.5090     1.0660     1.0370 hc         1 O5P       0.071200
     39 H42         -5.5200    -0.3230     2.2630 ha         1 O5P       0.112500
     40 H43         -7.7720     0.6940     2.0190 ha         1 O5P       0.111500
     41 H44         -8.1640     2.4810     0.3260 ha         1 O5P       0.111000
     42 H45         -6.2880     3.2530    -1.1240 ha         1 O5P       0.111500
     43 H46         -4.0300     2.2440    -0.8860 ha         1 O5P       0.112500
     44 H49          8.7770    -0.9580    -0.5610 hc         1 O5P       0.050367
     45 H47          9.2170     0.2800     0.6280 hc         1 O5P       0.050367
     46 H48          8.2330    -1.1040     1.1190 hc         1 O5P       0.050367
     47 H30          5.7960    -1.2490     0.3870 ha         1 O5P       0.113000
     48 H31          3.6890    -2.0850     0.5350 hn         1 O5P       0.373000
     49 C12         -0.2850    -0.0400    -0.4750 c          1 O5P       0.533600
@<TRIPOS>BOND
     1     1     2 ar  
     2     1    16 1   
     3     1    19 ar  
     4     2     3 ar  
     5     2    27 1   
     6     3    22 ar  
     7     3    28 1   
     8     4    17 1   
     9     4    20 2   
    10     4    29 1   
    11     5     6 1   
    12     5    21 1   
    13     5    30 1   
    14     5    31 1   
    15     6    26 1   
    16     6    32 1   
    17     6    33 1   
    18     7     8 1   
    19     7    26 1   
    20     7    34 1   
    21     7    35 1   
    22     8     9 1   
    23     8    21 1   
    24     8    36 1   
    25     9    10 1   
    26     9    37 1   
    27     9    38 1   
    28    10    11 ar  
    29    10    15 ar  
    30    11    12 ar  
    31    11    39 1   
    32    12    13 ar  
    33    12    40 1   
    34    13    14 ar  
    35    13    41 1   
    36    14    15 ar  
    37    14    42 1   
    38    15    43 1   
    39    16    44 1   
    40    16    45 1   
    41    16    46 1   
    42    17    24 2   
    43    17    49 1   
    44    18    19 ar  
    45    18    20 1   
    46    18    22 ar  
    47    19    47 1   
    48    20    23 1   
    49    21    49 1   
    50    23    24 1   
    51    23    48 1   
    52    25    49 2   
@<TRIPOS>SUBSTRUCTURE
     1 O5P         1 TEMP              0 ****  ****    0 ROOT
