@<TRIPOS>MOLECULE
O5S
   75    80     1     0     0
SMALL
No Charge or Current Charge


@<TRIPOS>ATOM
      1 C01          9.4160    -1.3560    -2.0710 c3         1 O5S      -0.077100
      2 C02          7.9940    -1.8510    -2.4160 c3         1 O5S      -0.151400
      3 C03          6.9220    -1.0130    -1.7060 c          1 O5S       0.615100
      4 O04          6.5780     0.0270    -2.2640 o          1 O5S      -0.597100
      5 N05          6.5190    -1.6260    -0.4750 nj         1 O5S      -0.435800
      6 C06          6.6740    -0.4720     0.4740 cy         1 O5S       0.086000
      7 C07          5.2070    -0.7770     0.9260 cy         1 O5S       0.072700
      8 C08          5.0320    -1.4120    -0.4940 cy         1 O5S       0.086000
      9 N09          4.3430     0.2990     1.3480 ns         1 O5S      -0.499900
     10 C10          2.9850     0.1550     1.5480 c          1 O5S       0.579100
     11 O11          2.4270    -0.9270     1.4230 o          1 O5S      -0.571100
     12 C12          2.2540     1.4490     1.9370 c3         1 O5S      -0.015400
     13 N13          0.7990     1.4370     1.6460 na         1 O5S      -0.071700
     14 C14         -0.2120     1.2170     2.6140 cc         1 O5S       0.037700
     15 C15         -0.0320     1.2870     4.0830 cx         1 O5S      -0.105500
     16 C16         -0.8460     2.2730     4.8950 cx         1 O5S      -0.116900
     17 C17          0.6280     2.5060     4.6980 cx         1 O5S      -0.116900
     18 C18         -1.3120     0.8140     1.8560 cd         1 O5S      -0.193400
     19 C19         -2.5870     0.2930     2.4580 c          1 O5S       0.652300
     20 O20         -2.9600     0.5680     3.5910 o          1 O5S      -0.600100
     21 N21         -3.3570    -0.5700     1.6510 n          1 O5S      -0.395800
     22 C22         -4.7770    -0.8490     1.9630 c6         1 O5S       0.090000
     23 C23         -5.6050    -1.0270     0.6680 c6         1 O5S      -0.046100
     24 C24         -4.8920    -1.8310    -0.4330 ca         1 O5S      -0.101300
     25 C25         -5.5990    -2.2280    -1.5910 ca         1 O5S       0.141100
     26 O26         -6.9400    -1.9030    -1.6900 os         1 O5S      -0.344100
     27 C27         -7.7390    -2.2550    -2.8340 c3         1 O5S       0.148900
     28 C28         -4.9280    -2.9340    -2.6150 ca         1 O5S      -0.194000
     29 C29         -3.5620    -3.2340    -2.4870 ca         1 O5S      -0.071000
     30 C30         -2.8600    -2.8340    -1.3410 ca         1 O5S      -0.136000
     31 C31         -3.5160    -2.1330    -0.3140 ca         1 O5S      -0.074300
     32 C32         -2.7260    -1.7050     0.9260 c6         1 O5S       0.140300
     33 C33         -1.0240     0.9530     0.4370 ca         1 O5S      -0.066800
     34 C34         -1.8580     0.8440    -0.6890 ca         1 O5S      -0.049000
     35 C35         -1.3010     1.0880    -1.9520 ca         1 O5S       0.101000
     36 Cl36        -2.3010     0.9320    -3.3910 cl         1 O5S      -0.210000
     37 C37          0.0450     1.4860    -2.0710 ca         1 O5S      -0.091000
     38 C38          0.8620     1.6510    -0.9270 ca         1 O5S      -0.081300
     39 C39          2.2800     2.1750    -1.1350 c3         1 O5S      -0.041800
     40 C40          0.2870     1.3530     0.3410 ca         1 O5S      -0.031200
     41 H1           9.5520    -0.3140    -2.3860 hc         1 O5S       0.043033
     42 H2           9.5960    -1.4160    -0.9900 hc         1 O5S       0.043033
     43 H3          10.1700    -1.9690    -2.5790 hc         1 O5S       0.043033
     44 H4           7.8540    -1.7880    -3.5020 hc         1 O5S       0.055700
     45 H5           7.9270    -2.8940    -2.0840 hc         1 O5S       0.055700
     46 H6           7.4240    -0.6500     1.2530 h1         1 O5S       0.060450
     47 H7           6.8060     0.5290     0.0460 h1         1 O5S       0.060450
     48 H8           5.1880    -1.5460     1.7080 h1         1 O5S       0.101700
     49 H9           4.6180    -0.7200    -1.2370 h1         1 O5S       0.060450
     50 H10          4.4610    -2.3460    -0.4910 h1         1 O5S       0.060450
     51 H11          4.7270     1.2260     1.4930 hn         1 O5S       0.316500
     52 H12          2.4190     1.5790     3.0110 h1         1 O5S       0.082700
     53 H13          2.7280     2.3020     1.4460 h1         1 O5S       0.082700
     54 H14          0.1940     0.3240     4.5350 hc         1 O5S       0.097700
     55 H15         -1.5350     2.9260     4.3650 hc         1 O5S       0.081700
     56 H16         -1.1860     1.9580     5.8790 hc         1 O5S       0.081700
     57 H17          1.2840     2.3510     5.5520 hc         1 O5S       0.081700
     58 H18          0.9210     3.3230     4.0420 hc         1 O5S       0.081700
     59 H19         -4.8340    -1.7690     2.5630 h1         1 O5S       0.061700
     60 H20         -5.2110    -0.0360     2.5620 h1         1 O5S       0.061700
     61 H21         -6.5670    -1.4930     0.9210 hc         1 O5S       0.063700
     62 H22         -5.8430    -0.0330     0.2680 hc         1 O5S       0.063700
     63 H23         -8.7680    -1.8990    -2.7020 h1         1 O5S       0.040033
     64 H24         -7.3350    -1.7990    -3.7470 h1         1 O5S       0.040033
     65 H25         -7.7700    -3.3440    -2.9670 h1         1 O5S       0.040033
     66 H26         -5.4440    -3.2530    -3.5150 ha         1 O5S       0.117000
     67 H27         -3.0470    -3.7750    -3.2780 ha         1 O5S       0.112000
     68 H28         -1.8010    -3.0690    -1.2530 ha         1 O5S       0.118000
     69 H29         -1.6910    -1.4780     0.6430 h1         1 O5S       0.070200
     70 H30         -2.6710    -2.5650     1.6100 h1         1 O5S       0.070200
     71 H31         -2.9110     0.5970    -0.6060 ha         1 O5S       0.144000
     72 H32          0.4430     1.6940    -3.0600 ha         1 O5S       0.124000
     73 H33          2.4570     3.0860    -0.5530 hc         1 O5S       0.039367
     74 H34          3.0320     1.4260    -0.8680 hc         1 O5S       0.039367
     75 H35          2.4610     2.4380    -2.1840 hc         1 O5S       0.039367
@<TRIPOS>BOND
     1     1     2 1   
     2     1    41 1   
     3     1    42 1   
     4     1    43 1   
     5     2     3 1   
     6     2    44 1   
     7     2    45 1   
     8     3     4 2   
     9     3     5 1   
    10     5     6 1   
    11     5     8 1   
    12     6     7 1   
    13     6    46 1   
    14     6    47 1   
    15     7     8 1   
    16     7     9 1   
    17     7    48 1   
    18     8    49 1   
    19     8    50 1   
    20     9    10 1   
    21     9    51 1   
    22    10    11 2   
    23    10    12 1   
    24    12    13 1   
    25    12    52 1   
    26    12    53 1   
    27    13    14 1   
    28    13    40 1   
    29    14    15 1   
    30    14    18 2   
    31    15    16 1   
    32    15    17 1   
    33    15    54 1   
    34    16    17 1   
    35    16    55 1   
    36    16    56 1   
    37    17    57 1   
    38    17    58 1   
    39    18    19 1   
    40    18    33 1   
    41    19    20 2   
    42    19    21 1   
    43    21    22 1   
    44    21    32 1   
    45    22    23 1   
    46    22    59 1   
    47    22    60 1   
    48    23    24 1   
    49    23    61 1   
    50    23    62 1   
    51    24    25 ar  
    52    24    31 ar  
    53    25    26 1   
    54    25    28 ar  
    55    26    27 1   
    56    27    63 1   
    57    27    64 1   
    58    27    65 1   
    59    28    29 ar  
    60    28    66 1   
    61    29    30 ar  
    62    29    67 1   
    63    30    31 ar  
    64    30    68 1   
    65    31    32 1   
    66    32    69 1   
    67    32    70 1   
    68    33    34 ar  
    69    33    40 ar  
    70    34    35 ar  
    71    34    71 1   
    72    35    36 1   
    73    35    37 ar  
    74    37    38 ar  
    75    37    72 1   
    76    38    39 1   
    77    38    40 ar  
    78    39    73 1   
    79    39    74 1   
    80    39    75 1   
@<TRIPOS>SUBSTRUCTURE
     1 O5S         1 TEMP              0 ****  ****    0 ROOT
