@<TRIPOS>MOLECULE
O5S
   75    80     1     0     0
SMALL
bcc


@<TRIPOS>ATOM
      1 C01          9.2430    -1.9940    -2.5650 c3         1 O5S      -0.077100
      2 C02          7.8740    -1.6020    -2.0380 c3         1 O5S      -0.151400
      3 C03          7.8890    -1.1870    -0.5830 c          1 O5S       0.682100
      4 O04          8.9160    -1.0060     0.0590 o          1 O5S      -0.597100
      5 N05          6.6830    -1.0220    -0.0270 nj         1 O5S      -0.502800
      6 C06          6.3270    -0.5440     1.2940 cy         1 O5S       0.086000
      7 C07          4.8450    -0.7280     0.9030 cy         1 O5S       0.072700
      8 C08          5.3210    -1.0650    -0.5320 cy         1 O5S       0.086000
      9 N09          4.0070     0.4180     1.0810 ns         1 O5S      -0.566900
     10 C10          2.6770     0.3400     1.2650 c          1 O5S       0.646100
     11 O11          2.0500    -0.7030     1.2970 o          1 O5S      -0.571100
     12 C12          1.9970     1.6870     1.4810 c3         1 O5S      -0.044700
     13 N13          0.5920     1.6100     1.2040 na         1 O5S      -0.042400
     14 C14         -0.3390     1.2390     2.1510 cc         1 O5S       0.037700
     15 C15          0.0470     1.0610     3.5620 cx         1 O5S      -0.105500
     16 C16         -0.8560     1.4970     4.6760 cx         1 O5S      -0.116900
     17 C17          0.4080     2.2480     4.4180 cx         1 O5S      -0.116900
     18 C18         -1.5360     1.0090     1.5340 cd         1 O5S      -0.193400
     19 C19         -2.8300     0.6020     2.1420 c          1 O5S       0.719300
     20 O20         -3.5490     1.4080     2.7200 o          1 O5S      -0.600100
     21 N21         -3.1750    -0.6940     1.9890 n          1 O5S      -0.462800
     22 C22         -4.5100    -1.1580     2.3140 c6         1 O5S       0.090000
     23 C23         -5.3470    -1.2320     1.0440 c6         1 O5S      -0.046100
     24 C24         -4.5800    -1.8450    -0.1010 ca         1 O5S      -0.101300
     25 C25         -5.2510    -2.1850    -1.2870 ca         1 O5S       0.141100
     26 O26         -6.5740    -1.9280    -1.2980 os         1 O5S      -0.320900
     27 C27         -7.3160    -2.2280    -2.4610 c3         1 O5S       0.125700
     28 C28         -4.5640    -2.7440    -2.3580 ca         1 O5S      -0.212000
     29 C29         -3.1940    -2.9570    -2.2540 ca         1 O5S      -0.089000
     30 C30         -2.5160    -2.6170    -1.1010 ca         1 O5S      -0.154000
     31 C31         -3.2070    -2.0590    -0.0270 ca         1 O5S      -0.074300
     32 C32         -2.4400    -1.6670     1.2140 c6         1 O5S       0.140300
     33 C33         -1.3390     1.2210     0.1370 ca         1 O5S      -0.066800
     34 C34         -2.2050     1.0950    -0.9510 ca         1 O5S      -0.067000
     35 C35         -1.6820     1.3340    -2.1980 ca         1 O5S       0.009400
     36 CL36        -2.7000     1.1700    -3.5980 cl         1 O5S      -0.118400
     37 C37         -0.3470     1.7040    -2.3850 ca         1 O5S      -0.109000
     38 C38          0.5330     1.8440    -1.3220 ca         1 O5S      -0.081300
     39 C39          1.9500     2.2560    -1.6040 c3         1 O5S      -0.041800
     40 C40          0.0110     1.5840    -0.0450 ca         1 O5S      -0.031200
     41 H1           9.9550    -1.1740    -2.4850 hc         1 O5S       0.043033
     42 H2           9.6510    -2.8460    -2.0220 hc         1 O5S       0.043033
     43 H3           9.1730    -2.2720    -3.6160 hc         1 O5S       0.043033
     44 H4           7.4660    -0.7710    -2.6230 hc         1 O5S       0.055700
     45 H5           7.1650    -2.4230    -2.1700 hc         1 O5S       0.055700
     46 H6           6.6820    -1.1600     2.1210 h1         1 O5S       0.060450
     47 H7           6.6200     0.4940     1.4760 h1         1 O5S       0.060450
     48 H8           4.3870    -1.5840     1.3930 h1         1 O5S       0.101700
     49 H9           5.0990    -0.2900    -1.2710 h1         1 O5S       0.060450
     50 H10          5.0020    -2.0340    -0.9200 h1         1 O5S       0.060450
     51 H11          4.4310     1.3290     0.9910 hn         1 O5S       0.316500
     52 H12          2.1400     1.9730     2.5240 h1         1 O5S       0.082700
     53 H13          2.4610     2.4770     0.8940 h1         1 O5S       0.082700
     54 H14          0.6270     0.1620     3.7500 hc         1 O5S       0.097700
     55 H15         -1.7870     1.9790     4.4160 hc         1 O5S       0.081700
     56 H16         -0.9080     0.8560     5.5460 hc         1 O5S       0.081700
     57 H17          1.2350     2.1340     5.1050 hc         1 O5S       0.081700
     58 H18          0.3250     3.2320     3.9740 hc         1 O5S       0.081700
     59 H19         -4.4190    -2.1480     2.7680 h1         1 O5S       0.061700
     60 H20         -4.9700    -0.5010     3.0470 h1         1 O5S       0.061700
     61 H21         -6.2550    -1.8020     1.2520 hc         1 O5S       0.063700
     62 H22         -5.6780    -0.2250     0.7690 hc         1 O5S       0.063700
     63 H23         -8.3450    -1.9410    -2.2550 h1         1 O5S       0.040033
     64 H24         -6.9630    -1.6650    -3.3290 h1         1 O5S       0.040033
     65 H25         -7.2900    -3.2940    -2.7000 h1         1 O5S       0.040033
     66 H26         -5.0720    -3.0140    -3.2730 ha         1 O5S       0.135000
     67 H27         -2.6610    -3.3850    -3.0930 ha         1 O5S       0.130000
     68 H28         -1.4460    -2.7680    -1.0320 ha         1 O5S       0.136000
     69 H29         -1.4620    -1.2760     0.9400 h1         1 O5S       0.070200
     70 H30         -2.2600    -2.5490     1.8380 h1         1 O5S       0.070200
     71 H31         -3.2410     0.8090    -0.8200 ha         1 O5S       0.162000
     72 H32          0.0150     1.8890    -3.3880 ha         1 O5S       0.142000
     73 H33          2.2150     3.1900    -1.1070 hc         1 O5S       0.039367
     74 H34          2.6740     1.5000    -1.2970 hc         1 O5S       0.039367
     75 H35          2.0880     2.4120    -2.6720 hc         1 O5S       0.039367
@<TRIPOS>BOND
     1     1     2 1   
     2     1    41 1   
     3     1    42 1   
     4     1    43 1   
     5     2     3 1   
     6     2    44 1   
     7     2    45 1   
     8     3     4 2   
     9     3     5 1   
    10     5     6 1   
    11     5     8 1   
    12     6     7 1   
    13     6    46 1   
    14     6    47 1   
    15     7     8 1   
    16     7     9 1   
    17     7    48 1   
    18     8    49 1   
    19     8    50 1   
    20     9    10 1   
    21     9    51 1   
    22    10    11 2   
    23    10    12 1   
    24    12    13 1   
    25    12    52 1   
    26    12    53 1   
    27    13    14 1   
    28    13    40 1   
    29    14    15 1   
    30    14    18 2   
    31    15    16 1   
    32    15    17 1   
    33    15    54 1   
    34    16    17 1   
    35    16    55 1   
    36    16    56 1   
    37    17    57 1   
    38    17    58 1   
    39    18    19 1   
    40    18    33 1   
    41    19    20 2   
    42    19    21 1   
    43    21    22 1   
    44    21    32 1   
    45    22    23 1   
    46    22    59 1   
    47    22    60 1   
    48    23    24 1   
    49    23    61 1   
    50    23    62 1   
    51    24    25 ar  
    52    24    31 ar  
    53    25    26 1   
    54    25    28 ar  
    55    26    27 1   
    56    27    63 1   
    57    27    64 1   
    58    27    65 1   
    59    28    29 ar  
    60    28    66 1   
    61    29    30 ar  
    62    29    67 1   
    63    30    31 ar  
    64    30    68 1   
    65    31    32 1   
    66    32    69 1   
    67    32    70 1   
    68    33    34 ar  
    69    33    40 ar  
    70    34    35 ar  
    71    34    71 1   
    72    35    36 1   
    73    35    37 ar  
    74    37    38 ar  
    75    37    72 1   
    76    38    39 1   
    77    38    40 ar  
    78    39    73 1   
    79    39    74 1   
    80    39    75 1   
@<TRIPOS>SUBSTRUCTURE
     1 O5S         1 TEMP              0 ****  ****    0 ROOT
