@<TRIPOS>MOLECULE
O5T
   45    46     1     0     0
SMALL
bcc


@<TRIPOS>ATOM
      1 C15        -17.7830    35.1910    47.7830 c3         1 O5T       0.116000
      2 N14        -17.3440    34.7050    46.4960 ns         1 O5T      -0.590900
      3 C18        -20.9860    35.1730    49.7300 c3         1 O5T       0.220100
      4 C10        -17.2670    35.7960    40.1650 ca         1 O5T      -0.052000
      5 C21        -22.0070    38.4470    48.0430 ca         1 O5T      -0.140000
      6 C22        -23.3840    38.2990    48.0110 ca         1 O5T       0.020100
      7 C12        -17.6170    35.3630    45.3480 c          1 O5T       0.796100
      8 C24        -24.0030    37.1720    48.5210 ca         1 O5T      -0.145000
      9 C25        -23.2220    36.1610    49.0780 ca         1 O5T       0.141100
     10 C05        -16.5380    34.7110    40.6340 ca         1 O5T      -0.236500
     11 C06        -16.5170    34.3640    41.9710 ca         1 O5T      -0.108000
     12 C07        -17.2430    35.1190    42.9000 ca         1 O5T       0.075600
     13 C08        -17.9840    36.2100    42.4400 ca         1 O5T      -0.100000
     14 C09        -17.9840    36.5330    41.0890 ca         1 O5T      -0.120000
     15 C16        -19.2270    34.8230    48.1000 c3         1 O5T       0.127800
     16 C19        -21.8270    36.2710    49.1170 ca         1 O5T      -0.171300
     17 C20        -21.2520    37.4250    48.6010 ca         1 O5T      -0.065000
     18 N01        -14.4440    34.8070    39.0290 n8         1 O5T      -0.896700
     19 N11        -17.1820    34.6990    44.2210 ns         1 O5T      -0.493100
     20 N17        -19.5820    35.3050    49.4200 n7         1 O5T      -0.811200
     21 O03        -15.0950    32.5730    40.1690 o          1 O5T      -0.616300
     22 O04        -16.4280    33.5220    38.2790 o          1 O5T      -0.616300
     23 O13        -18.1820    36.4460    45.3160 o          1 O5T      -0.618100
     24 S02        -15.6210    33.7390    39.4710 sy         1 O5T       1.267200
     25 BR1        -24.4510    39.6660    47.2560 br         1 O5T      -0.098100
     26 H1         -17.1160    34.7670    48.5350 h1         1 O5T       0.062200
     27 H2         -17.6640    36.2740    47.8270 h1         1 O5T       0.062200
     28 H3         -16.9320    33.7870    46.4640 hn         1 O5T       0.310500
     29 H4         -21.0960    35.2090    50.8190 h1         1 O5T       0.031700
     30 H5         -21.3780    34.1900    49.4190 h1         1 O5T       0.031700
     31 H6         -17.2750    36.0630    39.1170 ha         1 O5T       0.155000
     32 H7         -21.5220    39.3280    47.6460 ha         1 O5T       0.153000
     33 H8         -25.0790    37.0580    48.5020 ha         1 O5T       0.161000
     34 H9         -15.9420    33.5100    42.3060 ha         1 O5T       0.150000
     35 H10        -18.5650    36.8080    43.1220 ha         1 O5T       0.172000
     36 H11        -18.5640    37.3840    40.7570 ha         1 O5T       0.140000
     37 H12        -19.8820    35.2970    47.3650 h1         1 O5T       0.044700
     38 H13        -19.3650    33.7360    47.9940 h1         1 O5T       0.044700
     39 H14        -20.1750    37.5260    48.6360 ha         1 O5T       0.156000
     40 H15        -13.7220    34.9160    39.7330 hn         1 O5T       0.419800
     41 H16        -14.0340    34.5630    38.1330 hn         1 O5T       0.419800
     42 H17        -16.6730    33.8410    44.3660 hn         1 O5T       0.313500
     43 H18        -19.0450    34.8070    50.1180 hn         1 O5T       0.359800
     44 H20        -23.2990    34.4470    49.9530 ho         1 O5T       0.425000
     45 O26        -23.8930    35.1010    49.5720 oh         1 O5T      -0.498100
@<TRIPOS>BOND
     1     1     2 1   
     2     1    15 1   
     3     1    26 1   
     4     1    27 1   
     5     2     7 1   
     6     2    28 1   
     7     3    16 1   
     8     3    20 1   
     9     3    29 1   
    10     3    30 1   
    11     4    10 ar  
    12     4    14 ar  
    13     4    31 1   
    14     5     6 ar  
    15     5    17 ar  
    16     5    32 1   
    17     6     8 ar  
    18     6    25 1   
    19     7    19 1   
    20     7    23 2   
    21     8     9 ar  
    22     8    33 1   
    23     9    16 ar  
    24     9    45 1   
    25    10    11 ar  
    26    10    24 1   
    27    11    12 ar  
    28    11    34 1   
    29    12    13 ar  
    30    12    19 1   
    31    13    14 ar  
    32    13    35 1   
    33    14    36 1   
    34    15    20 1   
    35    15    37 1   
    36    15    38 1   
    37    16    17 ar  
    38    17    39 1   
    39    18    24 1   
    40    18    40 1   
    41    18    41 1   
    42    19    42 1   
    43    20    43 1   
    44    21    24 2   
    45    22    24 2   
    46    44    45 1   
@<TRIPOS>SUBSTRUCTURE
     1 O5T         1 TEMP              0 ****  ****    0 ROOT
