@<TRIPOS>MOLECULE
O5T
   45    46     1     0     0
SMALL
No Charge or Current Charge


@<TRIPOS>ATOM
      1 C15        -17.6910    35.2350    47.9460 c3         1 O5T       0.116000
      2 N14        -17.3310    34.8300    46.5810 ns         1 O5T      -0.523900
      3 C18        -20.9310    35.3390    50.0470 c3         1 O5T       0.220100
      4 C10        -17.4030    35.8580    40.1500 ca         1 O5T      -0.034000
      5 C21        -22.4930    38.6180    48.8370 ca         1 O5T      -0.122000
      6 C22        -23.3510    38.1840    47.8160 ca         1 O5T       0.020100
      7 C12        -17.6330    35.5490    45.4480 c          1 O5T       0.662100
      8 C24        -23.4340    36.8190    47.5020 ca         1 O5T      -0.127000
      9 C25        -22.6600    35.8820    48.2060 ca         1 O5T       0.141100
     10 C05        -16.7480    34.6920    40.5960 ca         1 O5T      -0.236500
     11 C06        -16.6960    34.4100    41.9790 ca         1 O5T      -0.090000
     12 C07        -17.2930    35.2750    42.9170 ca         1 O5T      -0.017000
     13 C08        -17.9490    36.4380    42.4550 ca         1 O5T      -0.082000
     14 C09        -18.0010    36.7240    41.0790 ca         1 O5T      -0.102000
     15 C16        -19.1990    35.0580    48.2490 c3         1 O5T       0.127800
     16 C19        -21.7930    36.3090    49.2400 ca         1 O5T      -0.171300
     17 C20        -21.7180    37.6850    49.5450 ca         1 O5T      -0.047000
     18 N01        -14.4610    34.1580    39.2740 n8         1 O5T      -1.007100
     19 N11        -17.1990    34.9200    44.2920 ns         1 O5T      -0.167000
     20 N17        -19.5130    35.4250    49.6520 n7         1 O5T      -0.866400
     21 O03        -15.7870    32.2480    39.9780 o          1 O5T      -0.545500
     22 O04        -16.5350    33.7760    38.0670 o          1 O5T      -0.545500
     23 O13        -18.2150    36.6220    45.4910 o          1 O5T      -0.618100
     24 S02        -15.9800    33.5780    39.4040 sy         1 O5T       1.125600
     25 Br1        -24.4060    39.4530    46.8500 br         1 O5T      -0.098100
     26 H1         -17.1060    34.6310    48.6520 h1         1 O5T       0.062200
     27 H2         -17.4120    36.2870    48.0920 h1         1 O5T       0.062200
     28 H3         -16.8410    33.9530    46.4530 hn         1 O5T       0.310500
     29 H4         -21.0300    35.5960    51.1110 h1         1 O5T       0.031700
     30 H5         -21.2970    34.3090    49.9420 h1         1 O5T       0.031700
     31 H6         -17.4500    36.0960    39.0880 ha         1 O5T       0.137000
     32 H7         -22.4260    39.6760    49.0800 ha         1 O5T       0.135000
     33 H8         -24.0970    36.4850    46.7090 ha         1 O5T       0.143000
     34 H9         -16.1880    33.5120    42.3270 ha         1 O5T       0.132000
     35 H10        -18.4260    37.1310    43.1400 ha         1 O5T       0.154000
     36 H11        -18.5070    37.6220    40.7320 ha         1 O5T       0.122000
     37 H12        -19.7690    35.6860    47.5500 h1         1 O5T       0.044700
     38 H13        -19.4760    34.0120    48.0560 h1         1 O5T       0.044700
     39 H14        -21.0510    38.0300    50.3340 ha         1 O5T       0.138000
     40 H15        -13.9270    33.3130    39.4630 hn         1 O5T       0.475000
     41 H16        -14.3820    34.2380    38.2630 hn         1 O5T       0.475000
     42 H17        -16.7280    34.0400    44.4510 hn         1 O5T       0.147000
     43 H18        -18.9750    34.8100    50.2770 hn         1 O5T       0.415000
     44 H20        -22.1170    34.0540    48.3870 ho         1 O5T       0.464000
     45 O26        -22.7650    34.5650    47.8610 oh         1 O5T      -0.537100
@<TRIPOS>BOND
     1     1     2 1   
     2     1    15 1   
     3     1    26 1   
     4     1    27 1   
     5     2     7 1   
     6     2    28 1   
     7     3    16 1   
     8     3    20 1   
     9     3    29 1   
    10     3    30 1   
    11     4    10 ar  
    12     4    14 ar  
    13     4    31 1   
    14     5     6 ar  
    15     5    17 ar  
    16     5    32 1   
    17     6     8 ar  
    18     6    25 1   
    19     7    19 1   
    20     7    23 2   
    21     8     9 ar  
    22     8    33 1   
    23     9    16 ar  
    24     9    45 1   
    25    10    11 ar  
    26    10    24 1   
    27    11    12 ar  
    28    11    34 1   
    29    12    13 ar  
    30    12    19 1   
    31    13    14 ar  
    32    13    35 1   
    33    14    36 1   
    34    15    20 1   
    35    15    37 1   
    36    15    38 1   
    37    16    17 ar  
    38    17    39 1   
    39    18    24 1   
    40    18    40 1   
    41    18    41 1   
    42    19    42 1   
    43    20    43 1   
    44    21    24 2   
    45    22    24 2   
    46    44    45 1   
@<TRIPOS>SUBSTRUCTURE
     1 O5T         1 TEMP              0 ****  ****    0 ROOT
