@<TRIPOS>MOLECULE
O5U
   69    72     1     0     0
SMALL
bcc


@<TRIPOS>ATOM
      1 C1          -0.1010     5.4400    -0.0150 ca         1 O5U      -0.152000
      2 C2          -0.9730     4.5200     0.5580 ca         1 O5U      -0.133000
      3 C3           1.1710     5.0470    -0.4200 ca         1 O5U      -0.132000
      4 C4          -0.5890     3.1930     0.7240 ca         1 O5U      -0.085000
      5 C5          -1.5550     1.0130    -1.4650 ca         1 O5U      -0.146000
      6 C6          -2.9190     0.7920    -1.3760 ca         1 O5U      -0.169000
      7 C7          -1.1330    -0.7540     0.1070 ca         1 O5U      -0.104600
      8 C8           1.5520     3.7250    -0.2500 ca         1 O5U      -0.108300
      9 C9           0.6750     2.8000     0.3130 ca         1 O5U      -0.053300
     10 C10         -0.6480     0.2440    -0.7390 ca         1 O5U      -0.099300
     11 C11         -3.4050    -0.2010    -0.5370 ca         1 O5U       0.057100
     12 C12         -2.5040    -0.9670     0.2040 ca         1 O5U       0.061100
     13 C15         -9.0280    -1.2990    -0.4620 c          1 O5U       0.926600
     14 C16          2.8580     3.0700    -0.5880 c5         1 O5U      -0.043100
     15 C17         -4.3100    -1.8790     1.3640 c6         1 O5U       0.094400
     16 C18          1.2990     1.4320     0.3560 c5         1 O5U      -0.038400
     17 C19          2.8060     1.7900     0.2590 c5         1 O5U       0.108700
     18 C20         -5.1540    -1.6250     0.1310 c6         1 O5U       0.103100
     19 C21          0.8220     0.5440    -0.8100 c3         1 O5U      -0.000100
     20 C22          5.1470    -1.1530    -0.2330 c3         1 O5U      -0.160400
     21 C24         -6.6300    -1.5330     0.4630 c3         1 O5U      -0.048400
     22 C25          6.6160    -1.0300     0.1670 c3         1 O5U      -0.067400
     23 C26          7.5020    -2.0320    -0.5620 c3         1 O5U      -0.077400
     24 C27          8.9720    -1.8980    -0.1870 c3         1 O5U      -0.077400
     25 C28          9.8600    -2.8980    -0.9120 c3         1 O5U       0.146800
     26 N29          3.6660     0.7560    -0.2540 ns         1 O5U      -0.561900
     27 N30         11.2550    -2.7300    -0.5300 n8         1 O5U      -0.885800
     28 O31          0.3180    -2.5910     0.3240 o          1 O5U      -0.824300
     29 O32         -9.7650    -1.0010    -1.4250 o          1 O5U      -0.857800
     30 O33         -0.0520    -1.3210     2.1220 o          1 O5U      -0.824300
     31 O34          4.1950    -0.1740     1.7340 o          1 O5U      -0.590100
     32 O35         -9.4010    -1.6110     0.6860 o          1 O5U      -0.857800
     33 O36         -2.9370    -1.9550     1.0320 os         1 O5U      -0.284900
     34 O37         -4.7450    -0.3980    -0.4670 os         1 O5U      -0.314900
     35 H1          -0.4090     6.4710    -0.1350 ha         1 O5U       0.110000
     36 H2          -1.9550     4.8400     0.8820 ha         1 O5U       0.125000
     37 H3           1.8530     5.7690    -0.8540 ha         1 O5U       0.110000
     38 H4          -1.2700     2.4800     1.1720 ha         1 O5U       0.165000
     39 H5          -1.1870     1.8000    -2.1110 ha         1 O5U       0.103000
     40 H6          -3.6170     1.3870    -1.9530 ha         1 O5U       0.123000
     41 H161         2.9120     2.8370    -1.6580 hc         1 O5U       0.038700
     42 H162         3.7280     3.6870    -0.3560 hc         1 O5U       0.038700
     43 H18          1.0810     0.9130     1.2900 hc         1 O5U       0.127700
     44 H211         1.3940    -0.3860    -0.7920 hc         1 O5U       0.042200
     45 H212         1.0510     1.0310    -1.7630 hc         1 O5U       0.042200
     46 H221         4.7850    -2.1570     0.0070 hc         1 O5U       0.062700
     47 H222         5.0460    -1.0300    -1.3140 hc         1 O5U       0.062700
     48 H29          3.7670     0.6840    -1.2530 hn         1 O5U       0.301500
     49 H231        -7.3100    -2.0430    -1.5140 hc         1 O5U       0.025700
     50 H232        -7.2630    -0.3280    -1.2150 hc         1 O5U       0.025700
     51 H19          3.1480     2.0340     1.2660 h1         1 O5U       0.075700
     52 H171        -4.4810    -1.0850     2.1030 h1         1 O5U       0.052200
     53 H172        -4.5800    -2.8320     1.8180 h1         1 O5U       0.052200
     54 H20         -4.9860    -2.4410    -0.5870 h1         1 O5U       0.046700
     55 H241        -6.9180    -2.4740     0.9350 hc         1 O5U       0.046200
     56 H242        -6.7810    -0.7520     1.2140 hc         1 O5U       0.046200
     57 H251         6.9650    -0.0150    -0.0470 hc         1 O5U       0.046200
     58 H252         6.7140    -1.1730     1.2460 hc         1 O5U       0.046200
     59 H261         7.1590    -3.0480    -0.3400 hc         1 O5U       0.037200
     60 H262         7.3870    -1.9000    -1.6430 hc         1 O5U       0.037200
     61 H271         9.3120    -0.8820    -0.4160 hc         1 O5U       0.044200
     62 H272         9.0940    -2.0300     0.8930 hc         1 O5U       0.044200
     63 H281         9.5510    -3.9110    -0.6380 h1         1 O5U       0.025700
     64 H282         9.6870    -2.8080    -1.9940 h1         1 O5U       0.025700
     65 H301        11.8210    -3.4300    -0.9940 hn         1 O5U       0.329300
     66 H302        11.5900    -1.8390    -0.8770 hn         1 O5U       0.329300
     67 C23         -7.5150    -1.2840    -0.7490 c3         1 O5U      -0.202400
     68 C14          4.2870    -0.1580     0.5140 c          1 O5U       0.676100
     69 C13         -0.2020    -1.6370     0.9290 c          1 O5U       0.938200
@<TRIPOS>BOND
     1     1     2 ar  
     2     1     3 ar  
     3     1    35 1   
     4     2     4 ar  
     5     2    36 1   
     6     3     8 ar  
     7     3    37 1   
     8     4     9 ar  
     9     4    38 1   
    10     5     6 ar  
    11     5    10 ar  
    12     5    39 1   
    13     6    11 ar  
    14     6    40 1   
    15     7    10 ar  
    16     7    12 ar  
    17     7    69 1   
    18     8     9 ar  
    19     8    14 1   
    20     9    16 1   
    21    10    19 1   
    22    11    12 ar  
    23    11    34 1   
    24    12    33 1   
    25    13    29 1   
    26    13    32 1   
    27    13    67 1   
    28    14    17 1   
    29    14    41 1   
    30    14    42 1   
    31    15    18 1   
    32    15    33 1   
    33    15    52 1   
    34    15    53 1   
    35    16    17 1   
    36    16    19 1   
    37    16    43 1   
    38    17    26 1   
    39    17    51 1   
    40    18    21 1   
    41    18    34 1   
    42    18    54 1   
    43    19    44 1   
    44    19    45 1   
    45    20    22 1   
    46    20    46 1   
    47    20    47 1   
    48    20    68 1   
    49    21    55 1   
    50    21    56 1   
    51    21    67 1   
    52    22    23 1   
    53    22    57 1   
    54    22    58 1   
    55    23    24 1   
    56    23    59 1   
    57    23    60 1   
    58    24    25 1   
    59    24    61 1   
    60    24    62 1   
    61    25    27 1   
    62    25    63 1   
    63    25    64 1   
    64    26    48 1   
    65    26    68 1   
    66    27    65 1   
    67    27    66 1   
    68    28    69 1   
    69    30    69 1   
    70    31    68 2   
    71    49    67 1   
    72    50    67 1   
@<TRIPOS>SUBSTRUCTURE
     1 O5U         1 TEMP              0 ****  ****    0 ROOT
