@<TRIPOS>MOLECULE
O5U
   69    72     1     0     0
SMALL
No Charge or Current Charge


@<TRIPOS>ATOM
      1 C1          -0.1990     5.3910    -0.2030 ca         1 O5U      -0.134000
      2 C2          -1.0320     4.4580     0.4480 ca         1 O5U      -0.115000
      3 C3           1.1140     5.0350    -0.5660 ca         1 O5U      -0.114000
      4 C4          -0.5550     3.1640     0.7360 ca         1 O5U      -0.067000
      5 C5          -1.3400     0.7830    -1.4170 ca         1 O5U      -0.128000
      6 C6          -2.7260     0.5680    -1.4420 ca         1 O5U      -0.151000
      7 C7          -1.1200    -0.7270     0.4940 ca         1 O5U      -0.104600
      8 C8           1.5730     3.7420    -0.2710 ca         1 O5U      -0.108300
      9 C9           0.7560     2.8210     0.3610 ca         1 O5U      -0.053300
     10 C10         -0.5260     0.1430    -0.4590 ca         1 O5U      -0.099300
     11 C11         -3.3160    -0.2960    -0.5110 ca         1 O5U       0.057100
     12 C12         -2.5160    -0.9340     0.4710 ca         1 O5U       0.061100
     13 C15         -9.0090    -1.4280    -0.8960 c          1 O5U       0.716000
     14 C16          2.9380     3.1800    -0.5660 c5         1 O5U      -0.043100
     15 C17         -4.5340    -1.6980     1.5610 c6         1 O5U       0.117600
     16 C18          1.4420     1.4890     0.5680 c5         1 O5U      -0.038400
     17 C19          2.9490     1.9920     0.4690 c5         1 O5U       0.108700
     18 C20         -5.2080    -1.6360     0.1700 c6         1 O5U       0.126300
     19 C21          0.9790     0.4210    -0.4700 c3         1 O5U      -0.000100
     20 C22          5.0860    -1.1260    -0.0930 c3         1 O5U      -0.160400
     21 C24         -6.7540    -1.4800     0.2550 c3         1 O5U      -0.048400
     22 C25          6.6090    -0.9710     0.1270 c3         1 O5U      -0.067400
     23 C26          7.4380    -2.0400    -0.6180 c3         1 O5U      -0.077400
     24 C27          8.9600    -1.8860    -0.4000 c3         1 O5U      -0.077400
     25 C28          9.7820    -2.9570    -1.1460 c3         1 O5U       0.146800
     26 N29          3.7610     0.9370    -0.1550 ns         1 O5U      -0.494900
     27 N30         11.2290    -2.7860    -0.9190 n8         1 O5U      -0.996200
     28 O31          0.2690    -2.4710     1.2240 o          1 O5U      -0.719000
     29 O32         -9.5260    -0.3230    -0.8450 o          1 O5U      -0.752500
     30 O33         -0.2190    -0.9290     2.6520 o          1 O5U      -0.719000
     31 O34          4.1340    -0.0780     1.8660 o          1 O5U      -0.590100
     32 O35         -9.6270    -2.4700    -0.7340 o          1 O5U      -0.752500
     33 O36         -3.1010    -1.7680     1.4070 os         1 O5U      -0.308100
     34 O37         -4.6780    -0.5130    -0.5680 os         1 O5U      -0.338100
     35 H1          -0.5700     6.3890    -0.4240 ha         1 O5U       0.092000
     36 H2          -2.0450     4.7360     0.7280 ha         1 O5U       0.107000
     37 H3           1.7630     5.7510    -1.0650 ha         1 O5U       0.092000
     38 H4          -1.1950     2.4380     1.2340 ha         1 O5U       0.147000
     39 H5          -0.8950     1.4580    -2.1450 ha         1 O5U       0.085000
     40 H6          -3.3410     1.0640    -2.1880 ha         1 O5U       0.105000
     41 H161         3.0050     2.8440    -1.6080 hc         1 O5U       0.038700
     42 H162         3.7510     3.8930    -0.3870 hc         1 O5U       0.038700
     43 H18          1.2460     1.0820     1.5660 hc         1 O5U       0.127700
     44 H211         1.5200    -0.5180    -0.3040 hc         1 O5U       0.042200
     45 H212         1.2760     0.7460    -1.4740 hc         1 O5U       0.042200
     46 H221         4.7780    -2.1080     0.2850 hc         1 O5U       0.062700
     47 H222         4.8820    -1.0620    -1.1690 hc         1 O5U       0.062700
     48 H29          3.9500     0.8800    -1.1480 hn         1 O5U       0.301500
     49 H231        -7.2210    -2.4690    -1.5740 hc         1 O5U       0.025700
     50 H232        -7.1350    -0.6360    -1.6700 hc         1 O5U       0.025700
     51 H19          3.3260     2.3300     1.4450 h1         1 O5U       0.075700
     52 H171        -4.7860    -0.7950     2.1360 h1         1 O5U       0.052200
     53 H172        -4.8810    -2.5760     2.1240 h1         1 O5U       0.052200
     54 H20         -4.9710    -2.5590    -0.3780 h1         1 O5U       0.046700
     55 H241        -7.1570    -2.2860     0.8800 hc         1 O5U       0.046200
     56 H242        -7.0010    -0.5440     0.7710 hc         1 O5U       0.046200
     57 H251         6.9200     0.0270    -0.2090 hc         1 O5U       0.046200
     58 H252         6.8270    -1.0280     1.2010 hc         1 O5U       0.046200
     59 H261         7.1260    -3.0370    -0.2820 hc         1 O5U       0.037200
     60 H262         7.2210    -1.9810    -1.6920 hc         1 O5U       0.037200
     61 H271         9.2720    -0.8900    -0.7370 hc         1 O5U       0.044200
     62 H272         9.1770    -1.9470     0.6740 hc         1 O5U       0.044200
     63 H281         9.4880    -3.9580    -0.8000 h1         1 O5U       0.025700
     64 H282         9.5850    -2.8910    -2.2250 h1         1 O5U       0.025700
     65 H301        11.7400    -3.4770    -1.4840 hn         1 O5U       0.384500
     66 H302        11.5240    -1.8860    -1.3150 hn         1 O5U       0.384500
     67 C23         -7.4890    -1.5110    -1.1110 c3         1 O5U      -0.202400
     68 C14          4.2960    -0.0470     0.6540 c          1 O5U       0.609100
     69 C13         -0.2960    -1.4320     1.5390 c          1 O5U       0.727600
@<TRIPOS>BOND
     1     1     2 ar  
     2     1     3 ar  
     3     1    35 1   
     4     2     4 ar  
     5     2    36 1   
     6     3     8 ar  
     7     3    37 1   
     8     4     9 ar  
     9     4    38 1   
    10     5     6 ar  
    11     5    10 ar  
    12     5    39 1   
    13     6    11 ar  
    14     6    40 1   
    15     7    10 ar  
    16     7    12 ar  
    17     7    69 1   
    18     8     9 ar  
    19     8    14 1   
    20     9    16 1   
    21    10    19 1   
    22    11    12 ar  
    23    11    34 1   
    24    12    33 1   
    25    13    29 1   
    26    13    32 1   
    27    13    67 1   
    28    14    17 1   
    29    14    41 1   
    30    14    42 1   
    31    15    18 1   
    32    15    33 1   
    33    15    52 1   
    34    15    53 1   
    35    16    17 1   
    36    16    19 1   
    37    16    43 1   
    38    17    26 1   
    39    17    51 1   
    40    18    21 1   
    41    18    34 1   
    42    18    54 1   
    43    19    44 1   
    44    19    45 1   
    45    20    22 1   
    46    20    46 1   
    47    20    47 1   
    48    20    68 1   
    49    21    55 1   
    50    21    56 1   
    51    21    67 1   
    52    22    23 1   
    53    22    57 1   
    54    22    58 1   
    55    23    24 1   
    56    23    59 1   
    57    23    60 1   
    58    24    25 1   
    59    24    61 1   
    60    24    62 1   
    61    25    27 1   
    62    25    63 1   
    63    25    64 1   
    64    26    48 1   
    65    26    68 1   
    66    27    65 1   
    67    27    66 1   
    68    28    69 1   
    69    30    69 1   
    70    31    68 2   
    71    49    67 1   
    72    50    67 1   
@<TRIPOS>SUBSTRUCTURE
     1 O5U         1 TEMP              0 ****  ****    0 ROOT
