@<TRIPOS>MOLECULE
O5V
   59    62     1     0     0
SMALL
No Charge or Current Charge


@<TRIPOS>ATOM
      1 C01          8.1540    -3.6660    -0.2670 c3         1 O5V      -0.077100
      2 C02          8.1890    -2.7830     1.0000 c3         1 O5V      -0.152400
      3 C03          7.1310    -1.6730     0.9380 c          1 O5V       0.615100
      4 O04          7.4480    -0.6430     0.3450 o          1 O5V      -0.594100
      5 N05          5.9250    -2.0700     1.6030 nj         1 O5V      -0.435800
      6 C06          4.9160    -1.8020     0.5240 cy         1 O5V       0.085000
      7 C07          4.1260    -0.9950     1.6080 cy         1 O5V       0.073700
      8 C08          5.5160    -0.8030     2.3000 cy         1 O5V       0.085000
      9 N09          3.3400     0.1550     1.2270 ns         1 O5V      -0.499900
     10 C10          2.1640     0.0770     0.5060 c          1 O5V       0.605100
     11 O11          1.7070    -0.9990     0.1400 o          1 O5V      -0.556100
     12 C12          1.4940     1.4400     0.2130 c3         1 O5V       0.074600
     13 O13          0.2650     1.2930    -0.5340 os         1 O5V      -0.309100
     14 C14         -0.5260     2.3670    -0.8920 ca         1 O5V       0.172100
     15 C15         -0.1350     3.6960    -0.6120 ca         1 O5V      -0.205000
     16 C16         -0.9170     4.7750    -1.0550 ca         1 O5V      -0.035000
     17 C17         -2.0840     4.5340    -1.7940 ca         1 O5V      -0.059900
     18 Br18        -3.1390     6.0020    -2.4170 br         1 O5V      -0.087100
     19 C19         -2.4810     3.2180    -2.0760 ca         1 O5V      -0.014000
     20 C20         -1.7220     2.1260    -1.6060 ca         1 O5V      -0.166600
     21 C21         -2.1940     0.7340    -1.9300 c          1 O5V       0.630700
     22 O22         -2.5130     0.4390    -3.0760 o          1 O5V      -0.597100
     23 N23         -2.2040    -0.2310    -0.9040 n          1 O5V      -0.395800
     24 C24         -2.4330     0.1450     0.5210 c5         1 O5V       0.141200
     25 C25         -3.0670    -1.0940     1.1270 c2         1 O5V      -0.224200
     26 C26         -3.1380    -2.0450     0.1840 ce         1 O5V      -0.068400
     27 C27         -2.5980    -1.6360    -1.1630 c5         1 O5V       0.136200
     28 C28         -3.7310    -3.3970     0.4230 ca         1 O5V      -0.036800
     29 C29         -3.2990    -4.5090    -0.3310 ca         1 O5V      -0.097000
     30 C30         -3.8570    -5.7810    -0.1130 ca         1 O5V      -0.111000
     31 C31         -4.8550    -5.9560     0.8590 ca         1 O5V      -0.104000
     32 C32         -5.2970    -4.8560     1.6110 ca         1 O5V      -0.111000
     33 C33         -4.7390    -3.5830     1.3940 ca         1 O5V      -0.097000
     34 H1           8.3580    -3.0680    -1.1630 hc         1 O5V       0.043033
     35 H2           8.9090    -4.4580    -0.2040 hc         1 O5V       0.043033
     36 H3           7.1710    -4.1380    -0.3830 hc         1 O5V       0.043033
     37 H4           7.9850    -3.4390     1.8550 hc         1 O5V       0.054200
     38 H5           9.1870    -2.3390     1.0910 hc         1 O5V       0.054200
     39 H6           5.2320    -1.1950    -0.3340 h1         1 O5V       0.060700
     40 H7           4.3990    -2.7040     0.1800 h1         1 O5V       0.060700
     41 H8           3.4820    -1.6570     2.2000 h1         1 O5V       0.106700
     42 H9           5.4840    -0.9000     3.3910 h1         1 O5V       0.060700
     43 H10          6.0240     0.1280     2.0210 h1         1 O5V       0.060700
     44 H11          3.6450     1.0860     1.4930 hn         1 O5V       0.314500
     45 H12          1.3040     1.9270     1.1780 h1         1 O5V       0.054200
     46 H13          2.2160     2.0490    -0.3440 h1         1 O5V       0.054200
     47 H14          0.7770     3.9140    -0.0640 ha         1 O5V       0.119000
     48 H15         -0.6110     5.7970    -0.8380 ha         1 O5V       0.130000
     49 H16         -3.3910     3.0430    -2.6480 ha         1 O5V       0.144000
     50 H17         -1.4910     0.3890     1.0280 h1         1 O5V       0.059200
     51 H18         -3.0970     1.0160     0.6020 h1         1 O5V       0.059200
     52 H19         -3.3990    -1.1910     2.1610 ha         1 O5V       0.195000
     53 H22         -3.3650    -1.7150    -1.9450 h1         1 O5V       0.067700
     54 H23         -1.7280    -2.2360    -1.4610 h1         1 O5V       0.067700
     55 H24         -2.5230    -4.3980    -1.0840 ha         1 O5V       0.113000
     56 H25         -3.5130    -6.6320    -0.6970 ha         1 O5V       0.113000
     57 H26         -5.2870    -6.9400     1.0270 ha         1 O5V       0.113000
     58 H27         -6.0740    -4.9870     2.3610 ha         1 O5V       0.113000
     59 H28         -5.1050    -2.7420     1.9770 ha         1 O5V       0.113000
@<TRIPOS>BOND
     1     1     2 1   
     2     1    34 1   
     3     1    35 1   
     4     1    36 1   
     5     2     3 1   
     6     2    37 1   
     7     2    38 1   
     8     3     4 2   
     9     3     5 1   
    10     5     6 1   
    11     5     8 1   
    12     6     7 1   
    13     6    39 1   
    14     6    40 1   
    15     7     8 1   
    16     7     9 1   
    17     7    41 1   
    18     8    42 1   
    19     8    43 1   
    20     9    10 1   
    21     9    44 1   
    22    10    11 2   
    23    10    12 1   
    24    12    13 1   
    25    12    45 1   
    26    12    46 1   
    27    13    14 1   
    28    14    15 ar  
    29    14    20 ar  
    30    15    16 ar  
    31    15    47 1   
    32    16    17 ar  
    33    16    48 1   
    34    17    18 1   
    35    17    19 ar  
    36    19    20 ar  
    37    19    49 1   
    38    20    21 1   
    39    21    22 2   
    40    21    23 1   
    41    23    24 1   
    42    23    27 1   
    43    24    25 1   
    44    24    50 1   
    45    24    51 1   
    46    25    26 2   
    47    25    52 1   
    48    26    27 1   
    49    26    28 1   
    50    27    53 1   
    51    27    54 1   
    52    28    29 ar  
    53    28    33 ar  
    54    29    30 ar  
    55    29    55 1   
    56    30    31 ar  
    57    30    56 1   
    58    31    32 ar  
    59    31    57 1   
    60    32    33 ar  
    61    32    58 1   
    62    33    59 1   
@<TRIPOS>SUBSTRUCTURE
     1 O5V         1 TEMP              0 ****  ****    0 ROOT
