@<TRIPOS>MOLECULE
O5V
   59    62     1     0     0
SMALL
bcc


@<TRIPOS>ATOM
      1 C01          9.1560    -2.8080     2.0610 c3         1 O5V      -0.077100
      2 C02          7.7040    -2.3900     1.9130 c3         1 O5V      -0.152400
      3 C03          7.2000    -2.4520     0.4870 c          1 O5V       0.682100
      4 O04          7.8940    -2.7860    -0.4640 o          1 O5V      -0.594100
      5 N05          5.9150    -2.1140     0.3280 nj         1 O5V      -0.502800
      6 C06          5.1330    -1.9770    -0.8860 cy         1 O5V       0.085000
      7 C07          3.9330    -1.5670    -0.0020 cy         1 O5V       0.073700
      8 C08          4.8950    -1.5750     1.2120 cy         1 O5V       0.085000
      9 N09          3.2950    -0.3310    -0.3300 ns         1 O5V      -0.566900
     10 C10          1.9670    -0.1240    -0.2550 c          1 O5V       0.672100
     11 O11          1.1480    -0.9790     0.0210 o          1 O5V      -0.556100
     12 C12          1.5670     1.3230    -0.5010 c3         1 O5V       0.051400
     13 O13          0.2580     1.3160    -1.0080 os         1 O5V      -0.285900
     14 C14         -0.4850     2.4330    -0.9220 ca         1 O5V       0.172100
     15 C15          0.0100     3.6880    -0.5890 ca         1 O5V      -0.223000
     16 C16         -0.8450     4.7810    -0.5340 ca         1 O5V      -0.053000
     17 C17         -2.1880     4.6190    -0.8230 ca         1 O5V      -0.059900
     18 BR18        -3.3510     6.1050    -0.7510 br         1 O5V      -0.087100
     19 C19         -2.6900     3.3740    -1.1750 ca         1 O5V      -0.032000
     20 C20         -1.8440     2.2780    -1.2090 ca         1 O5V      -0.166600
     21 C21         -2.3850     0.9510    -1.6550 c          1 O5V       0.697700
     22 O22         -2.6820     0.7690    -2.8290 o          1 O5V      -0.597100
     23 N23         -2.5480     0.0220    -0.7120 n          1 O5V      -0.462800
     24 C24         -2.2680     0.1750     0.7110 c5         1 O5V       0.141200
     25 C25         -2.7490    -1.1220     1.2620 c2         1 O5V      -0.174200
     26 C26         -3.1980    -1.9420     0.3110 ce         1 O5V      -0.068400
     27 C27         -3.0830    -1.2900    -1.0380 c5         1 O5V       0.136200
     28 C28         -3.7390    -3.2940     0.4670 ca         1 O5V      -0.036800
     29 C29         -4.1070    -4.0430    -0.6530 ca         1 O5V      -0.115000
     30 C30         -4.6230    -5.3250    -0.5170 ca         1 O5V      -0.129000
     31 C31         -4.7840    -5.8830     0.7420 ca         1 O5V      -0.122000
     32 C32         -4.4220    -5.1480     1.8660 ca         1 O5V      -0.129000
     33 C33         -3.9060    -3.8700     1.7310 ca         1 O5V      -0.115000
     34 H1           9.8200    -2.1740     1.4760 hc         1 O5V       0.043033
     35 H2           9.4600    -2.7330     3.1050 hc         1 O5V       0.043033
     36 H3           9.3120    -3.8390     1.7450 hc         1 O5V       0.043033
     37 H4           7.0630    -3.0180     2.5390 hc         1 O5V       0.054200
     38 H5           7.5630    -1.3710     2.2850 hc         1 O5V       0.054200
     39 H6           5.4930    -1.1870    -1.5510 h1         1 O5V       0.060700
     40 H7           5.0090    -2.8960    -1.4600 h1         1 O5V       0.060700
     41 H8           3.1780    -2.3460     0.0650 h1         1 O5V       0.106700
     42 H9           4.6100    -2.2240     2.0420 h1         1 O5V       0.060700
     43 H10          5.1270    -0.5790     1.6000 h1         1 O5V       0.060700
     44 H11          3.8900     0.4530    -0.5560 hn         1 O5V       0.314500
     45 H12          1.6250     1.8460     0.4620 h1         1 O5V       0.054200
     46 H13          2.2570     1.8200    -1.1900 h1         1 O5V       0.054200
     47 H14          1.0590     3.8450    -0.3800 ha         1 O5V       0.137000
     48 H15         -0.4420     5.7500    -0.2700 ha         1 O5V       0.148000
     49 H16         -3.7400     3.2430    -1.4050 ha         1 O5V       0.162000
     50 H17         -1.2010     0.3150     0.9030 h1         1 O5V       0.059200
     51 H18         -2.7990     1.0300     1.1390 h1         1 O5V       0.059200
     52 H19         -2.7060    -1.3300     2.3220 ha         1 O5V       0.145000
     53 H22         -4.0500    -1.2080    -1.5440 h1         1 O5V       0.067700
     54 H23         -2.4120    -1.8380    -1.7090 h1         1 O5V       0.067700
     55 H24         -3.9890    -3.6320    -1.6480 ha         1 O5V       0.131000
     56 H25         -4.8990    -5.8850    -1.4010 ha         1 O5V       0.131000
     57 H26         -5.1890    -6.8800     0.8510 ha         1 O5V       0.131000
     58 H27         -4.5460    -5.5720     2.8540 ha         1 O5V       0.131000
     59 H28         -3.6370    -3.3160     2.6210 ha         1 O5V       0.131000
@<TRIPOS>BOND
     1     1     2 1   
     2     1    34 1   
     3     1    35 1   
     4     1    36 1   
     5     2     3 1   
     6     2    37 1   
     7     2    38 1   
     8     3     4 2   
     9     3     5 1   
    10     5     6 1   
    11     5     8 1   
    12     6     7 1   
    13     6    39 1   
    14     6    40 1   
    15     7     8 1   
    16     7     9 1   
    17     7    41 1   
    18     8    42 1   
    19     8    43 1   
    20     9    10 1   
    21     9    44 1   
    22    10    11 2   
    23    10    12 1   
    24    12    13 1   
    25    12    45 1   
    26    12    46 1   
    27    13    14 1   
    28    14    15 ar  
    29    14    20 ar  
    30    15    16 ar  
    31    15    47 1   
    32    16    17 ar  
    33    16    48 1   
    34    17    18 1   
    35    17    19 ar  
    36    19    20 ar  
    37    19    49 1   
    38    20    21 1   
    39    21    22 2   
    40    21    23 1   
    41    23    24 1   
    42    23    27 1   
    43    24    25 1   
    44    24    50 1   
    45    24    51 1   
    46    25    26 2   
    47    25    52 1   
    48    26    27 1   
    49    26    28 1   
    50    27    53 1   
    51    27    54 1   
    52    28    29 ar  
    53    28    33 ar  
    54    29    30 ar  
    55    29    55 1   
    56    30    31 ar  
    57    30    56 1   
    58    31    32 ar  
    59    31    57 1   
    60    32    33 ar  
    61    32    58 1   
    62    33    59 1   
@<TRIPOS>SUBSTRUCTURE
     1 O5V         1 TEMP              0 ****  ****    0 ROOT
