@<TRIPOS>MOLECULE
O5W
   71    75     1     0     0
SMALL
abcg2


@<TRIPOS>ATOM
      1 C31        -15.2440    -7.7910     4.2780 cc         1 O5W       0.006600
      2 C32        -14.9260    -7.5340     5.5630 cd         1 O5W      -0.276400
      3 C01         -2.4320    -4.2810     6.9780 c3         1 O5W       0.032900
      4 C03         -4.1830    -5.9840     7.2110 ca         1 O5W       0.244500
      5 C04         -5.4400    -6.4350     6.7810 ca         1 O5W      -0.070600
      6 C05         -6.0950    -5.7120     5.7890 ca         1 O5W       0.371500
      7 C07         -7.2730    -7.4530     6.4260 cc         1 O5W       0.501700
      8 C09         -8.3140    -6.0000     4.6190 c5         1 O5W       0.305300
      9 C10         -8.6360    -7.0980     3.6040 c5         1 O5W      -0.110400
     10 C11        -10.1330    -6.9510     3.3850 c5         1 O5W       0.213300
     11 C12        -10.6370    -6.4050     4.7280 c5         1 O5W       0.117300
     12 C14        -11.1980    -7.4670     5.6470 c3         1 O5W       0.207600
     13 C24        -12.7820    -8.4220     1.7310 c3         1 O5W       0.206600
     14 C25        -14.0860    -8.6970     0.9960 c5         1 O5W       0.136300
     15 C26        -15.0610    -7.5080     0.9610 c5         1 O5W       0.126300
     16 C27        -16.3450    -8.0710     1.5930 c5         1 O5W      -0.156400
     17 C28        -15.8870    -9.2950     2.3720 c5         1 O5W       0.342700
     18 C33        -14.8990    -8.6440     6.4940 c          1 O5W       0.587200
     19 C35        -15.5320   -10.1490     4.6230 c          1 O5W       0.632000
     20 C38        -14.6180    -6.1570     6.0610 c3         1 O5W      -0.015900
     21 C42         -4.4760    -4.2090     5.6300 ca         1 O5W       0.532400
     22 N02         -3.7360    -4.8430     6.5970 na         1 O5W      -0.289200
     23 N06         -7.2660    -6.3770     5.5640 na         1 O5W      -0.221300
     24 N08         -6.1930    -7.5190     7.1700 nd         1 O5W      -0.564100
     25 N30        -15.5580    -9.0400     3.7920 n          1 O5W      -0.336000
     26 N34        -15.2170    -9.8750     5.9330 ns         1 O5W      -0.448500
     27 N41         -5.6380    -4.5950     5.1960 nb         1 O5W      -0.603000
     28 O13         -9.5060    -5.7380     5.3360 os         1 O5W      -0.460000
     29 O15        -10.2590    -8.5330     5.7970 os         1 O5W      -0.658400
     30 O17        -11.2060   -10.1540     7.5380 o          1 O5W      -0.815500
     31 O18         -9.3910   -10.8270     5.9510 oh         1 O5W      -0.763400
     32 O19        -11.7560   -10.4490     5.0230 o          1 O5W      -0.815500
     33 O20        -10.3500    -6.0270     2.3130 os         1 O5W      -0.599400
     34 O22        -11.6060    -5.0450     0.4070 o          1 O5W      -0.825000
     35 O23        -12.0210    -7.4410     1.0250 os         1 O5W      -0.620400
     36 O29        -14.7610    -9.7820     1.6640 os         1 O5W      -0.439000
     37 O36        -15.7730   -11.2830     4.2380 o          1 O5W      -0.573000
     38 O37        -14.6240    -8.5650     7.6880 o          1 O5W      -0.540000
     39 O39        -15.2390    -7.0840    -0.3900 oh         1 O5W      -0.714000
     40 O40        -12.8640    -5.6320     2.6110 o          1 O5W      -0.825000
     41 P16        -10.8050   -10.0430     6.1050 p5         1 O5W       1.373800
     42 P21        -11.8110    -5.9260     1.5900 p5         1 O5W       1.411800
     43 H311       -15.2610    -6.9910     3.5560 h4         1 O5W       0.223000
     44 H012        -2.2590    -3.3840     6.3940 h1         1 O5W       0.070700
     45 H011        -2.4400    -4.0280     8.0380 h1         1 O5W       0.070700
     46 H013        -1.6460    -5.0060     6.7700 h1         1 O5W       0.070700
     47 H071        -8.1110    -8.1320     6.4590 h5         1 O5W       0.158800
     48 H091        -7.9600    -5.0870     4.1410 h2         1 O5W       0.095700
     49 H101        -8.0720    -6.9830     2.6820 hc         1 O5W       0.072700
     50 H102        -8.4260    -8.0750     4.0320 hc         1 O5W       0.072700
     51 H111       -10.5920    -7.9090     3.1490 h1         1 O5W       0.083700
     52 H1         -11.4140    -5.6610     4.5560 h1         1 O5W       0.123700
     53 H141       -11.4150    -7.0330     6.6250 h1         1 O5W       0.056700
     54 H142       -12.1280    -7.8400     5.2120 h1         1 O5W       0.056700
     55 H242       -12.9850    -8.0920     2.7490 h1         1 O5W       0.054700
     56 H241       -12.1910    -9.3380     1.7740 h1         1 O5W       0.054700
     57 H251       -13.8710    -9.0190    -0.0250 h1         1 O5W       0.088700
     58 H261       -14.6560    -6.6800     1.5420 h1         1 O5W       0.098700
     59 H272       -16.9020    -7.3490     2.1860 hc         1 O5W       0.061200
     60 H271       -16.9910    -8.4220     0.7890 hc         1 O5W       0.061200
     61 H281       -16.6240   -10.0910     2.3860 h2         1 O5W       0.099700
     62 H383       -15.3360    -5.8540     6.8270 hc         1 O5W       0.042033
     63 H382       -13.6280    -6.1160     6.5170 hc         1 O5W       0.042033
     64 H381       -14.6540    -5.4370     5.2450 hc         1 O5W       0.042033
     65 H421        -4.0190    -3.3190     5.2230 h5         1 O5W       0.069100
     66 H341       -15.1880   -10.6780     6.5500 hn         1 O5W       0.343500
     67 H431        -2.5530    -6.2700     8.4300 hn         1 O5W       0.372000
     68 H432        -3.8220    -7.4330     8.5610 hn         1 O5W       0.372000
     69 H181        -9.1320   -10.9230     5.0250 ho         1 O5W       0.421000
     70 H391       -15.6410    -6.2070    -0.3800 ho         1 O5W       0.500000
     71 N43         -3.4610    -6.5930     8.1370 nv         1 O5W      -0.488800
@<TRIPOS>BOND
     1     1     2 2   
     2     1    25 1   
     3     1    43 1   
     4     2    18 1   
     5     2    20 1   
     6     3    22 1   
     7     3    44 1   
     8     3    45 1   
     9     3    46 1   
    10     4     5 ar  
    11     4    22 2   
    12     4    71 1   
    13     5     6 ar  
    14     5    24 1   
    15     6    23 1   
    16     6    27 ar  
    17     7    23 1   
    18     7    24 2   
    19     7    47 1   
    20     8     9 1   
    21     8    23 1   
    22     8    28 1   
    23     8    48 1   
    24     9    10 1   
    25     9    49 1   
    26     9    50 1   
    27    10    11 1   
    28    10    33 1   
    29    10    51 1   
    30    11    12 1   
    31    11    28 1   
    32    11    52 1   
    33    12    29 1   
    34    12    53 1   
    35    12    54 1   
    36    13    14 1   
    37    13    35 1   
    38    13    55 1   
    39    13    56 1   
    40    14    15 1   
    41    14    36 1   
    42    14    57 1   
    43    15    16 1   
    44    15    39 1   
    45    15    58 1   
    46    16    17 1   
    47    16    59 1   
    48    16    60 1   
    49    17    25 1   
    50    17    36 1   
    51    17    61 1   
    52    18    26 1   
    53    18    38 2   
    54    19    25 1   
    55    19    26 1   
    56    19    37 2   
    57    20    62 1   
    58    20    63 1   
    59    20    64 1   
    60    21    22 1   
    61    21    27 ar  
    62    21    65 1   
    63    26    66 1   
    64    29    41 1   
    65    30    41 1   
    66    31    41 1   
    67    31    69 1   
    68    32    41 1   
    69    33    42 1   
    70    34    42 1   
    71    35    42 1   
    72    39    70 1   
    73    40    42 1   
    74    67    71 1   
    75    68    71 1   
@<TRIPOS>SUBSTRUCTURE
     1 O5W         1 TEMP              0 ****  ****    0 ROOT
