@<TRIPOS>MOLECULE
O5W
   71    75     1     0     0
SMALL
No Charge or Current Charge


@<TRIPOS>ATOM
      1 C31        -15.2980    -7.3580     4.1070 cc         1 O5W       0.006600
      2 C32        -15.0090    -7.1340     5.4360 cd         1 O5W      -0.276400
      3 C01         -2.6790    -3.4290     6.6710 c3         1 O5W       0.032900
      4 C03         -3.9110    -5.6200     6.8950 ca         1 O5W       0.244500
      5 C04         -5.0580    -6.3750     6.5900 ca         1 O5W      -0.070600
      6 C05         -6.0650    -5.8220     5.8300 ca         1 O5W       0.371500
      7 C07         -6.5500    -7.9150     6.4140 cc         1 O5W       0.501700
      8 C09         -8.2480    -6.7170     4.9580 c5         1 O5W       0.305300
      9 C10         -8.6110    -7.9160     4.0560 c5         1 O5W      -0.110400
     10 C11        -10.0980    -7.5930     3.7810 c5         1 O5W       0.213300
     11 C12        -10.5710    -6.9570     5.1400 c5         1 O5W       0.117300
     12 C14        -11.4640    -7.8920     6.0050 c3         1 O5W       0.207600
     13 C24        -12.7260    -8.5650     1.8030 c3         1 O5W       0.206600
     14 C25        -14.0190    -8.6650     0.9410 c5         1 O5W       0.136300
     15 C26        -14.8700    -7.3480     0.7890 c5         1 O5W       0.126300
     16 C27        -16.2700    -7.7590     1.3430 c5         1 O5W      -0.156400
     17 C28        -15.9640    -8.9930     2.2330 c5         1 O5W       0.342700
     18 C33        -14.9370    -8.2670     6.3860 c          1 O5W       0.587200
     19 C35        -15.4690    -9.7600     4.5240 c          1 O5W       0.632000
     20 C38        -14.7400    -5.7600     6.0070 c3         1 O5W      -0.015900
     21 C42         -4.9170    -3.8570     5.6390 ca         1 O5W       0.532400
     22 N02         -3.8370    -4.3130     6.4050 na         1 O5W      -0.289200
     23 N06         -7.0100    -6.7950     5.7170 na         1 O5W      -0.221300
     24 N08         -5.3400    -7.6890     6.9700 nd         1 O5W      -0.564100
     25 N30        -15.5450    -8.6630     3.6400 n          1 O5W      -0.336000
     26 N34        -15.1610    -9.4750     5.8140 ns         1 O5W      -0.448500
     27 N41         -6.0260    -4.5710     5.3360 nb         1 O5W      -0.603000
     28 O13         -9.3520    -6.6410     5.8720 os         1 O5W      -0.460000
     29 O15        -10.7470    -9.1020     6.3300 os         1 O5W      -0.658400
     30 O17        -12.5150   -10.9350     6.7060 o          1 O5W      -0.815500
     31 O18        -10.0750   -11.3920     6.2470 oh         1 O5W      -0.763400
     32 O19        -11.5400   -10.6140     4.4270 o          1 O5W      -0.815500
     33 O20        -10.1190    -6.6200     2.7080 os         1 O5W      -0.599400
     34 O22        -11.3250    -5.0790     1.0760 o          1 O5W      -0.825000
     35 O23        -11.8520    -7.5640     1.2440 os         1 O5W      -0.620400
     36 O29        -14.9160    -9.6570     1.5040 os         1 O5W      -0.439000
     37 O36        -15.6940   -10.9120     4.1910 o          1 O5W      -0.573000
     38 O37        -14.6940    -8.1580     7.5770 o          1 O5W      -0.540000
     39 O39        -14.9920    -6.9240    -0.5750 oh         1 O5W      -0.714000
     40 O40        -12.5730    -5.8740     3.0470 o          1 O5W      -0.825000
     41 P16        -11.3420   -10.5260     5.8910 p5         1 O5W       1.373800
     42 P21        -11.5290    -6.1990     2.0390 p5         1 O5W       1.411800
     43 H311       -15.3450    -6.5670     3.3700 h4         1 O5W       0.223000
     44 H012        -2.8260    -2.4480     6.2010 h1         1 O5W       0.070700
     45 H011        -2.5620    -3.2830     7.7530 h1         1 O5W       0.070700
     46 H013        -1.7640    -3.8780     6.2630 h1         1 O5W       0.070700
     47 H071        -7.1270    -8.8310     6.4880 h5         1 O5W       0.158800
     48 H091        -8.2000    -5.7960     4.3590 h2         1 O5W       0.095700
     49 H101        -8.0060    -7.9600     3.1440 hc         1 O5W       0.072700
     50 H102        -8.5070    -8.8750     4.5740 hc         1 O5W       0.072700
     51 H111       -10.6660    -8.4830     3.4880 h1         1 O5W       0.083700
     52 H1         -11.1200    -6.0210     4.9800 h1         1 O5W       0.123700
     53 H141       -11.7550    -7.3610     6.9210 h1         1 O5W       0.056700
     54 H142       -12.3800    -8.1080     5.4390 h1         1 O5W       0.056700
     55 H242       -12.9930    -8.3420     2.8430 h1         1 O5W       0.054700
     56 H241       -12.2290    -9.5440     1.7970 h1         1 O5W       0.054700
     57 H251       -13.7090    -9.0260    -0.0480 h1         1 O5W       0.088700
     58 H261       -14.4290    -6.5450     1.3960 h1         1 O5W       0.098700
     59 H272       -16.8100    -6.9540     1.8530 hc         1 O5W       0.061200
     60 H271       -16.9280    -8.0780     0.5270 hc         1 O5W       0.061200
     61 H281       -16.8460    -9.6420     2.3190 h2         1 O5W       0.099700
     62 H383       -15.4730    -5.5020     6.7810 hc         1 O5W       0.042033
     63 H382       -13.7410    -5.7050     6.4570 hc         1 O5W       0.042033
     64 H381       -14.7930    -4.9860     5.2320 hc         1 O5W       0.042033
     65 H421        -4.8640    -2.8410     5.2500 h5         1 O5W       0.069100
     66 H341       -15.0660   -10.2700     6.4240 hn         1 O5W       0.343500
     67 H431        -2.0680    -5.6240     7.8740 hn         1 O5W       0.372000
     68 H432        -2.9800    -7.1060     7.9900 hn         1 O5W       0.372000
     69 H181        -9.8660   -11.5400     5.3080 ho         1 O5W       0.421000
     70 H391       -15.5490    -6.1110    -0.5800 ho         1 O5W       0.500000
     71 N43         -2.8980    -6.1550     7.6500 nv         1 O5W      -0.488800
@<TRIPOS>BOND
     1     1     2 2   
     2     1    25 1   
     3     1    43 1   
     4     2    18 1   
     5     2    20 1   
     6     3    22 1   
     7     3    44 1   
     8     3    45 1   
     9     3    46 1   
    10     4     5 ar  
    11     4    22 2   
    12     4    71 1   
    13     5     6 ar  
    14     5    24 1   
    15     6    23 1   
    16     6    27 ar  
    17     7    23 1   
    18     7    24 2   
    19     7    47 1   
    20     8     9 1   
    21     8    23 1   
    22     8    28 1   
    23     8    48 1   
    24     9    10 1   
    25     9    49 1   
    26     9    50 1   
    27    10    11 1   
    28    10    33 1   
    29    10    51 1   
    30    11    12 1   
    31    11    28 1   
    32    11    52 1   
    33    12    29 1   
    34    12    53 1   
    35    12    54 1   
    36    13    14 1   
    37    13    35 1   
    38    13    55 1   
    39    13    56 1   
    40    14    15 1   
    41    14    36 1   
    42    14    57 1   
    43    15    16 1   
    44    15    39 1   
    45    15    58 1   
    46    16    17 1   
    47    16    59 1   
    48    16    60 1   
    49    17    25 1   
    50    17    36 1   
    51    17    61 1   
    52    18    26 1   
    53    18    38 2   
    54    19    25 1   
    55    19    26 1   
    56    19    37 2   
    57    20    62 1   
    58    20    63 1   
    59    20    64 1   
    60    21    22 1   
    61    21    27 ar  
    62    21    65 1   
    63    26    66 1   
    64    29    41 1   
    65    30    41 1   
    66    31    41 1   
    67    31    69 1   
    68    32    41 1   
    69    33    42 1   
    70    34    42 1   
    71    35    42 1   
    72    39    70 1   
    73    40    42 1   
    74    67    71 1   
    75    68    71 1   
@<TRIPOS>SUBSTRUCTURE
     1 O5W         1 TEMP              0 ****  ****    0 ROOT
