@<TRIPOS>MOLECULE
O5X
   32    32     1     0     0
SMALL
No Charge or Current Charge


@<TRIPOS>ATOM
      1 C02        -14.7380     0.1490   -39.5220 ca         1 O5X       0.603900
      2 C03        -15.1220    -0.4450   -40.7270 ca         1 O5X      -0.230000
      3 C04        -14.2480    -1.3620   -41.3290 ca         1 O5X      -0.000300
      4 C05        -13.0350    -1.6210   -40.6700 ca         1 O5X      -0.202000
      5 C06        -12.7560    -0.9590   -39.4610 ca         1 O5X       0.525000
      6 C07        -14.6010    -2.0520   -42.6360 c3         1 O5X      -0.053800
      7 C08        -11.5250    -1.2000   -38.7640 cg         1 O5X      -0.230000
      8 C09        -10.4780    -1.4120   -38.1840 c1         1 O5X      -0.102100
      9 C10         -9.1980    -1.6950   -37.5200 c3         1 O5X       0.005700
     10 C11         -8.3040    -2.6510   -38.3460 c3         1 O5X       0.166800
     11 C13         -6.1220    -1.9780   -37.3510 c3         1 O5X       0.150100
     12 C14         -6.3740    -4.1770   -38.4110 c3         1 O5X       0.150100
     13 N01        -13.5990    -0.0760   -38.8870 nb         1 O5X      -0.736000
     14 N02        -15.4880     1.0390   -38.8690 nv         1 O5X      -1.059900
     15 N12         -7.0520    -3.0890   -37.6710 n3         1 O5X      -0.716600
     16 H1         -16.0780    -0.2020   -41.1810 ha         1 O5X       0.119000
     17 H2         -12.3170    -2.3240   -41.0830 ha         1 O5X       0.127000
     18 H3         -13.7030    -2.2690   -43.2270 hc         1 O5X       0.047033
     19 H4         -15.1170    -3.0010   -42.4490 hc         1 O5X       0.047033
     20 H5         -15.2580    -1.4270   -43.2520 hc         1 O5X       0.047033
     21 H6          -9.3970    -2.1420   -36.5380 hc         1 O5X       0.068200
     22 H7          -8.6800    -0.7460   -37.3480 hc         1 O5X       0.068200
     23 H8          -8.9060    -3.5380   -38.5870 h1         1 O5X       0.036700
     24 H9          -8.0610    -2.1650   -39.3020 h1         1 O5X       0.036700
     25 H10         -6.5850    -1.2550   -36.6670 h1         1 O5X       0.030867
     26 H11         -5.2180    -2.3610   -36.8590 h1         1 O5X       0.030867
     27 H12         -5.8170    -1.4470   -38.2630 h1         1 O5X       0.030867
     28 H13         -5.5000    -4.5400   -37.8530 h1         1 O5X       0.030867
     29 H14         -7.0530    -5.0260   -38.5620 h1         1 O5X       0.030867
     30 H15         -6.0330    -3.8280   -39.3950 h1         1 O5X       0.030867
     31 H16        -14.9990     1.5620   -38.1520 hn         1 O5X       0.472500
     32 H17        -16.1910     1.5430   -39.3990 hn         1 O5X       0.472500
@<TRIPOS>BOND
     1     1     2 ar  
     2     1    13 ar  
     3     1    14 1   
     4     2     3 ar  
     5     2    16 1   
     6     3     4 ar  
     7     3     6 1   
     8     4     5 ar  
     9     4    17 1   
    10     5     7 1   
    11     5    13 ar  
    12     6    18 1   
    13     6    19 1   
    14     6    20 1   
    15     7     8 3   
    16     8     9 1   
    17     9    10 1   
    18     9    21 1   
    19     9    22 1   
    20    10    15 1   
    21    10    23 1   
    22    10    24 1   
    23    11    15 1   
    24    11    25 1   
    25    11    26 1   
    26    11    27 1   
    27    12    15 1   
    28    12    28 1   
    29    12    29 1   
    30    12    30 1   
    31    14    31 1   
    32    14    32 1   
@<TRIPOS>SUBSTRUCTURE
     1 O5X         1 TEMP              0 ****  ****    0 ROOT
