@<TRIPOS>MOLECULE
O5X
   32    32     1     0     0
SMALL
bcc


@<TRIPOS>ATOM
      1 C02        -14.7020     0.1680   -39.4890 ca         1 O5X       0.669200
      2 C03        -15.0400    -0.4250   -40.7210 ca         1 O5X      -0.313300
      3 C04        -14.1680    -1.3220   -41.3020 ca         1 O5X      -0.000300
      4 C05        -12.9720    -1.6040   -40.6330 ca         1 O5X      -0.285300
      5 C06        -12.7220    -0.9680   -39.4280 ca         1 O5X       0.590300
      6 C07        -14.4750    -1.9820   -42.6100 c3         1 O5X      -0.053800
      7 C08        -11.5000    -1.2330   -38.7270 cg         1 O5X      -0.230000
      8 C09        -10.4700    -1.4640   -38.1460 c1         1 O5X      -0.102100
      9 C10         -9.2120    -1.7650   -37.4800 c3         1 O5X       0.005700
     10 C11         -8.3250    -2.6720   -38.3400 c3         1 O5X       0.166800
     11 C13         -6.1620    -1.9400   -37.5720 c3         1 O5X       0.150100
     12 C14         -6.4770    -4.1830   -38.3010 c3         1 O5X       0.150100
     13 N01        -13.5640    -0.0970   -38.8600 nb         1 O5X      -0.736000
     14 N02        -15.5700     1.0170   -38.8720 nv         1 O5X      -0.949500
     15 N12         -7.0980    -3.0410   -37.6650 n3         1 O5X      -0.716600
     16 H1         -15.9790    -0.1750   -41.2000 ha         1 O5X       0.137000
     17 H2         -12.2530    -2.3010   -41.0430 ha         1 O5X       0.145000
     18 H3         -13.7210    -1.7300   -43.3560 hc         1 O5X       0.047033
     19 H4         -14.4700    -3.0680   -42.5060 hc         1 O5X       0.047033
     20 H5         -15.4480    -1.6840   -42.9980 hc         1 O5X       0.047033
     21 H6          -9.4110    -2.2580   -36.5250 hc         1 O5X       0.068200
     22 H7          -8.7050    -0.8260   -37.2450 hc         1 O5X       0.068200
     23 H8          -8.8840    -3.5850   -38.5550 h1         1 O5X       0.036700
     24 H9          -8.1360    -2.1830   -39.3100 h1         1 O5X       0.036700
     25 H10         -6.5850    -1.1060   -37.0130 h1         1 O5X       0.030867
     26 H11         -5.2670    -2.2620   -37.0380 h1         1 O5X       0.030867
     27 H12         -5.8470    -1.5600   -38.5570 h1         1 O5X       0.030867
     28 H13         -5.5890    -4.4820   -37.7420 h1         1 O5X       0.030867
     29 H14         -7.1640    -5.0300   -38.3100 h1         1 O5X       0.030867
     30 H15         -6.1670    -3.9910   -39.3400 h1         1 O5X       0.030867
     31 H16        -15.1900     1.6010   -38.1450 hn         1 O5X       0.417300
     32 H17        -16.2780     1.4570   -39.4350 hn         1 O5X       0.417300
@<TRIPOS>BOND
     1     1     2 ar  
     2     1    13 ar  
     3     1    14 1   
     4     2     3 ar  
     5     2    16 1   
     6     3     4 ar  
     7     3     6 1   
     8     4     5 ar  
     9     4    17 1   
    10     5     7 1   
    11     5    13 ar  
    12     6    18 1   
    13     6    19 1   
    14     6    20 1   
    15     7     8 3   
    16     8     9 1   
    17     9    10 1   
    18     9    21 1   
    19     9    22 1   
    20    10    15 1   
    21    10    23 1   
    22    10    24 1   
    23    11    15 1   
    24    11    25 1   
    25    11    26 1   
    26    11    27 1   
    27    12    15 1   
    28    12    28 1   
    29    12    29 1   
    30    12    30 1   
    31    14    31 1   
    32    14    32 1   
@<TRIPOS>SUBSTRUCTURE
     1 O5X         1 TEMP              0 ****  ****    0 ROOT
