@<TRIPOS>MOLECULE
O5Y
   65    69     1     0     0
SMALL
No Charge or Current Charge


@<TRIPOS>ATOM
      1 C01        -10.0970    -0.4970    -0.4730 c3         1 O5Y      -0.077100
      2 C02         -8.9780    -1.0020     0.4650 c3         1 O5Y      -0.151400
      3 C03         -7.6120    -0.4270     0.0670 c          1 O5Y       0.616100
      4 O04         -6.9970    -1.0290    -0.8110 o          1 O5Y      -0.600100
      5 N05         -7.3080     0.7530     0.8210 nj         1 O5Y      -0.439800
      6 C06         -6.9390     1.7020    -0.2840 cy         1 O5Y       0.092500
      7 C07         -5.6240     1.9720     0.5200 cy         1 O5Y       0.076700
      8 C08         -5.8530     0.5510     1.1350 cy         1 O5Y       0.092500
      9 N09         -4.3960     2.2650    -0.1780 ns         1 O5Y      -0.501900
     10 C10         -3.1580     2.3030     0.4320 c          1 O5Y       0.573100
     11 O11         -3.0280     2.1490     1.6390 o          1 O5Y      -0.561100
     12 C12         -1.9690     2.5400    -0.5090 c3         1 O5Y      -0.010400
     13 N13         -0.9340     1.4940    -0.4040 na         1 O5Y      -0.070700
     14 C14          0.3270     1.6140     0.2050 cc         1 O5Y      -0.103100
     15 C15          0.9070     0.3480     0.0870 cd         1 O5Y      -0.196400
     16 C16          2.2330    -0.0730     0.6600 c          1 O5Y       0.650300
     17 O17          2.5190    -1.2550     0.8080 o          1 O5Y      -0.594100
     18 N18          3.1540     0.9320     1.0500 n          1 O5Y      -0.405800
     19 C19          4.3080     0.6180     1.9240 c6         1 O5Y       0.090000
     20 C20          5.6180     0.5840     1.1180 c6         1 O5Y      -0.047100
     21 C21          5.8140     1.8650     0.3000 ca         1 O5Y      -0.091300
     22 C22          7.1040     2.2510    -0.1340 ca         1 O5Y       0.144100
     23 O23          8.1810     1.4460     0.1900 os         1 O5Y      -0.342100
     24 C24          9.5280     1.7570    -0.2100 c3         1 O5Y       0.148900
     25 C25          7.2630     3.4380    -0.8840 ca         1 O5Y      -0.195000
     26 C26          6.1470     4.2270    -1.2010 ca         1 O5Y      -0.072000
     27 C27          4.8680     3.8360    -0.7800 ca         1 O5Y      -0.145000
     28 C28          4.6900     2.6580    -0.0320 ca         1 O5Y      -0.076300
     29 C29          3.2630     2.2600     0.3870 c6         1 O5Y       0.149300
     30 C30         -0.0270    -0.5500    -0.5750 ca         1 O5Y      -0.055800
     31 C31          0.0590    -1.9070    -0.9310 ca         1 O5Y      -0.014000
     32 C32         -1.0450    -2.4860    -1.5900 ca         1 O5Y      -0.043900
     33 Br33        -0.9860    -4.3300    -2.0950 br         1 O5Y      -0.105100
     34 C34         -2.1930    -1.7160    -1.8850 ca         1 O5Y      -0.069000
     35 C35         -2.2480    -0.3530    -1.5230 ca         1 O5Y      -0.127000
     36 C36         -1.1370     0.2000    -0.8640 ca         1 O5Y      -0.041200
     37 H1          -9.9020    -0.8020    -1.5090 hc         1 O5Y       0.043033
     38 H2         -11.0670    -0.9100    -0.1700 hc         1 O5Y       0.043033
     39 H3         -10.1650     0.5970    -0.4420 hc         1 O5Y       0.043033
     40 H4          -9.2350    -0.6720     1.4790 hc         1 O5Y       0.057200
     41 H5          -8.9460    -2.0970     0.4180 hc         1 O5Y       0.057200
     42 H6          -6.7690     1.2840    -1.2840 h1         1 O5Y       0.063700
     43 H7          -7.6040     2.5700    -0.3480 h1         1 O5Y       0.063700
     44 H8          -5.7750     2.7570     1.2710 h1         1 O5Y       0.089700
     45 H9          -5.6460     0.4970     2.2100 h1         1 O5Y       0.063700
     46 H10         -5.3150    -0.2480     0.6100 h1         1 O5Y       0.063700
     47 H11         -4.4130     2.4250    -1.1800 hn         1 O5Y       0.321500
     48 H12         -2.3270     2.5850    -1.5440 h1         1 O5Y       0.076200
     49 H13         -1.5340     3.5150    -0.2600 h1         1 O5Y       0.076200
     50 H14          0.6530     2.5290     0.6860 h4         1 O5Y       0.218000
     51 H15          4.3830     1.3920     2.7020 h1         1 O5Y       0.061700
     52 H16          4.1620    -0.3410     2.4400 h1         1 O5Y       0.061700
     53 H17          6.4560     0.4330     1.8120 hc         1 O5Y       0.068200
     54 H18          5.6110    -0.2810     0.4420 hc         1 O5Y       0.068200
     55 H19         10.2190     0.9860     0.1520 h1         1 O5Y       0.041033
     56 H20          9.6100     1.8000    -1.3040 h1         1 O5Y       0.041033
     57 H21          9.8460     2.7210     0.2060 h1         1 O5Y       0.041033
     58 H22          8.2400     3.7630    -1.2290 ha         1 O5Y       0.118000
     59 H23          6.2730     5.1400    -1.7800 ha         1 O5Y       0.112000
     60 H24          4.0090     4.4520    -1.0390 ha         1 O5Y       0.110000
     61 H25          2.6560     2.2690    -0.5270 h1         1 O5Y       0.056200
     62 H26          2.8680     3.0310     1.0640 h1         1 O5Y       0.056200
     63 H27          0.9430    -2.4990    -0.7140 ha         1 O5Y       0.153000
     64 H28         -3.0380    -2.1730    -2.3950 ha         1 O5Y       0.126000
     65 H29         -3.1280     0.2400    -1.7560 ha         1 O5Y       0.112000
@<TRIPOS>BOND
     1     1     2 1   
     2     1    37 1   
     3     1    38 1   
     4     1    39 1   
     5     2     3 1   
     6     2    40 1   
     7     2    41 1   
     8     3     4 2   
     9     3     5 1   
    10     5     6 1   
    11     5     8 1   
    12     6     7 1   
    13     6    42 1   
    14     6    43 1   
    15     7     8 1   
    16     7     9 1   
    17     7    44 1   
    18     8    45 1   
    19     8    46 1   
    20     9    10 1   
    21     9    47 1   
    22    10    11 2   
    23    10    12 1   
    24    12    13 1   
    25    12    48 1   
    26    12    49 1   
    27    13    14 1   
    28    13    36 1   
    29    14    15 2   
    30    14    50 1   
    31    15    16 1   
    32    15    30 1   
    33    16    17 2   
    34    16    18 1   
    35    18    19 1   
    36    18    29 1   
    37    19    20 1   
    38    19    51 1   
    39    19    52 1   
    40    20    21 1   
    41    20    53 1   
    42    20    54 1   
    43    21    22 ar  
    44    21    28 ar  
    45    22    23 1   
    46    22    25 ar  
    47    23    24 1   
    48    24    55 1   
    49    24    56 1   
    50    24    57 1   
    51    25    26 ar  
    52    25    58 1   
    53    26    27 ar  
    54    26    59 1   
    55    27    28 ar  
    56    27    60 1   
    57    28    29 1   
    58    29    61 1   
    59    29    62 1   
    60    30    31 ar  
    61    30    36 ar  
    62    31    32 ar  
    63    31    63 1   
    64    32    33 1   
    65    32    34 ar  
    66    34    35 ar  
    67    34    64 1   
    68    35    36 ar  
    69    35    65 1   
@<TRIPOS>SUBSTRUCTURE
     1 O5Y         1 TEMP              0 ****  ****    0 ROOT
