@<TRIPOS>MOLECULE
O5Y
   65    69     1     0     0
SMALL
abcg2


@<TRIPOS>ATOM
      1 C01        -10.0540    -1.2580    -0.4160 c3         1 O5Y      -0.077100
      2 C02         -8.6980    -0.7450     0.0340 c3         1 O5Y      -0.151400
      3 C03         -8.5330     0.7490    -0.1470 c          1 O5Y       0.616100
      4 O04         -9.4120     1.4820    -0.5820 o          1 O5Y      -0.600100
      5 N05         -7.3380     1.2310     0.2100 nj         1 O5Y      -0.439800
      6 C06         -6.8230     2.5850     0.1530 cy         1 O5Y       0.092500
      7 C07         -5.5070     2.0590     0.7620 cy         1 O5Y       0.076700
      8 C08         -6.1140     0.6350     0.7200 cy         1 O5Y       0.092500
      9 N09         -4.3450     2.2890    -0.0490 ns         1 O5Y      -0.501900
     10 C10         -3.1410     1.8250     0.3100 c          1 O5Y       0.573100
     11 O11         -2.9470     1.1730     1.3200 o          1 O5Y      -0.561100
     12 C12         -2.0050     2.2040    -0.6340 c3         1 O5Y      -0.010400
     13 N13         -0.8830     1.3280    -0.4680 na         1 O5Y      -0.070700
     14 C14          0.2080     1.5820     0.2970 cc         1 O5Y      -0.103100
     15 C15          1.0260     0.4820     0.3450 cd         1 O5Y      -0.196400
     16 C16          2.2470     0.2780     1.1410 c          1 O5Y       0.650300
     17 O17          2.4770    -0.8300     1.6140 o          1 O5Y      -0.594100
     18 N18          3.0610     1.3370     1.3770 n          1 O5Y      -0.405800
     19 C19          4.1860     1.1850     2.2800 c6         1 O5Y       0.090000
     20 C20          5.4600     0.8960     1.5060 c6         1 O5Y      -0.047100
     21 C21          5.6220     1.8670     0.3670 ca         1 O5Y      -0.091300
     22 C22          6.8670     2.0070    -0.2730 ca         1 O5Y       0.144100
     23 O23          7.8440     1.1980     0.1800 os         1 O5Y      -0.342100
     24 C24          9.1310     1.2990    -0.3940 c3         1 O5Y       0.148900
     25 C25          7.0400     2.9300    -1.2970 ca         1 O5Y      -0.195000
     26 C26          5.9620     3.7140    -1.6980 ca         1 O5Y      -0.072000
     27 C27          4.7290     3.5730    -1.0960 ca         1 O5Y      -0.145000
     28 C28          4.5560     2.6450    -0.0670 ca         1 O5Y      -0.076300
     29 C29          3.1780     2.5140     0.5450 c6         1 O5Y       0.149300
     30 C30          0.3670    -0.5370    -0.4210 ca         1 O5Y      -0.055800
     31 C31          0.6770    -1.8610    -0.7430 ca         1 O5Y      -0.014000
     32 C32         -0.2120    -2.5530    -1.5390 ca         1 O5Y      -0.043900
     33 BR33         0.1720    -4.3510    -1.9930 br         1 O5Y      -0.105100
     34 C34         -1.3980    -1.9840    -2.0220 ca         1 O5Y      -0.069000
     35 C35         -1.7130    -0.6760    -1.7120 ca         1 O5Y      -0.127000
     36 C36         -0.8220     0.0330    -0.9140 ca         1 O5Y      -0.041200
     37 H1         -10.2200    -1.0760    -1.4780 hc         1 O5Y       0.043033
     38 H2         -10.1200    -2.3330    -0.2510 hc         1 O5Y       0.043033
     39 H3         -10.8670    -0.7870     0.1350 hc         1 O5Y       0.043033
     40 H4          -8.5300    -0.9890     1.0880 hc         1 O5Y       0.057200
     41 H5          -7.9000    -1.2560    -0.5130 hc         1 O5Y       0.057200
     42 H6          -6.7360     2.9830    -0.8620 h1         1 O5Y       0.063700
     43 H7          -7.3640     3.3040     0.7680 h1         1 O5Y       0.063700
     44 H8          -5.3350     2.4090     1.7790 h1         1 O5Y       0.089700
     45 H9          -6.2180     0.1470     1.6910 h1         1 O5Y       0.063700
     46 H10         -5.6230    -0.0470     0.0220 h1         1 O5Y       0.063700
     47 H11         -4.4550     2.7650    -0.9310 hn         1 O5Y       0.321500
     48 H12         -2.3310     2.2040    -1.6750 h1         1 O5Y       0.076200
     49 H13         -1.6890     3.2240    -0.4080 h1         1 O5Y       0.076200
     50 H14          0.3130     2.5440     0.7770 h4         1 O5Y       0.218000
     51 H15          4.2890     2.1210     2.8370 h1         1 O5Y       0.061700
     52 H16          3.9820     0.3990     3.0020 h1         1 O5Y       0.061700
     53 H17          6.3120     0.9590     2.1850 hc         1 O5Y       0.068200
     54 H18          5.4400    -0.1320     1.1330 hc         1 O5Y       0.068200
     55 H19          9.7560     0.5710     0.1160 h1         1 O5Y       0.041033
     56 H20          9.1220     1.0680    -1.4620 h1         1 O5Y       0.041033
     57 H21          9.5620     2.2940    -0.2540 h1         1 O5Y       0.041033
     58 H22          7.9950     3.0510    -1.7900 ha         1 O5Y       0.118000
     59 H23          6.0960     4.4300    -2.4980 ha         1 O5Y       0.112000
     60 H24          3.8900     4.1770    -1.4230 ha         1 O5Y       0.110000
     61 H25          2.4520     2.4780    -0.2640 h1         1 O5Y       0.056200
     62 H26          2.9540     3.4100     1.1330 h1         1 O5Y       0.056200
     63 H27          1.5830    -2.3220    -0.3740 ha         1 O5Y       0.153000
     64 H28         -2.0730    -2.5610    -2.6390 ha         1 O5Y       0.126000
     65 H29         -2.6290    -0.2380    -2.0850 ha         1 O5Y       0.112000
@<TRIPOS>BOND
     1     1     2 1   
     2     1    37 1   
     3     1    38 1   
     4     1    39 1   
     5     2     3 1   
     6     2    40 1   
     7     2    41 1   
     8     3     4 2   
     9     3     5 1   
    10     5     6 1   
    11     5     8 1   
    12     6     7 1   
    13     6    42 1   
    14     6    43 1   
    15     7     8 1   
    16     7     9 1   
    17     7    44 1   
    18     8    45 1   
    19     8    46 1   
    20     9    10 1   
    21     9    47 1   
    22    10    11 2   
    23    10    12 1   
    24    12    13 1   
    25    12    48 1   
    26    12    49 1   
    27    13    14 1   
    28    13    36 1   
    29    14    15 2   
    30    14    50 1   
    31    15    16 1   
    32    15    30 1   
    33    16    17 2   
    34    16    18 1   
    35    18    19 1   
    36    18    29 1   
    37    19    20 1   
    38    19    51 1   
    39    19    52 1   
    40    20    21 1   
    41    20    53 1   
    42    20    54 1   
    43    21    22 ar  
    44    21    28 ar  
    45    22    23 1   
    46    22    25 ar  
    47    23    24 1   
    48    24    55 1   
    49    24    56 1   
    50    24    57 1   
    51    25    26 ar  
    52    25    58 1   
    53    26    27 ar  
    54    26    59 1   
    55    27    28 ar  
    56    27    60 1   
    57    28    29 1   
    58    29    61 1   
    59    29    62 1   
    60    30    31 ar  
    61    30    36 ar  
    62    31    32 ar  
    63    31    63 1   
    64    32    33 1   
    65    32    34 ar  
    66    34    35 ar  
    67    34    64 1   
    68    35    36 ar  
    69    35    65 1   
@<TRIPOS>SUBSTRUCTURE
     1 O5Y         1 TEMP              0 ****  ****    0 ROOT
