@<TRIPOS>MOLECULE
O5Z
   48    50     1     0     0
SMALL
bcc


@<TRIPOS>ATOM
      1 C11         18.9490   -11.4100    20.3510 c5         1 O5Z      -0.085400
      2 C13         16.5210   -11.2130    20.9940 c          1 O5Z       0.672100
      3 C14         14.7800    -9.5230    20.6820 c3         1 O5Z       0.084700
      4 C16         12.6040   -10.8220    21.2880 cc         1 O5Z      -0.232300
      5 C17         11.8270   -10.8610    22.4860 cc         1 O5Z      -0.226300
      6 N           16.1980   -15.1180    23.8940 n8         1 O5Z      -0.866800
      7 C           17.5180   -14.5490    23.6960 c3         1 O5Z       0.097500
      8 O           16.5240   -12.3840    23.5950 o          1 O5Z      -0.612100
      9 C1          18.3510   -14.4360    24.9920 c3         1 O5Z      -0.070100
     10 C10         19.9740   -12.4690    20.7370 c5         1 O5Z      -0.095400
     11 C12         17.9350   -11.4560    21.5040 c5         1 O5Z       0.031700
     12 C15         13.6400    -9.9820    21.5210 cd         1 O5Z       0.221000
     13 C18         12.4680   -10.0400    23.3460 cd         1 O5Z       0.277900
     14 C2          19.7530   -13.9470    24.7620 ca         1 O5Z      -0.082300
     15 C3          20.0510   -12.5860    24.7690 ca         1 O5Z      -0.124500
     16 C4          21.3350   -12.1370    24.4940 ca         1 O5Z      -0.130000
     17 C5          22.3450   -13.0450    24.2040 ca         1 O5Z      -0.130000
     18 C6          22.0620   -14.4050    24.1980 ca         1 O5Z      -0.130000
     19 C7          20.7770   -14.8490    24.4770 ca         1 O5Z      -0.124500
     20 C8          17.3330   -13.1600    23.0960 c          1 O5Z       0.687100
     21 C9          19.1170   -13.5610    21.3590 c5         1 O5Z       0.108000
     22 N1          18.0780   -12.7970    22.0420 n          1 O5Z      -0.458800
     23 N2          16.0710    -9.9590    21.1660 ns         1 O5Z      -0.568900
     24 O1          15.8930   -12.0770    20.4050 o          1 O5Z      -0.580100
     25 O2          13.5590    -9.4970    22.7870 os         1 O5Z      -0.307800
     26 BR          12.0900    -9.5640    25.0900 br         1 O5Z      -0.103200
     27 H1          19.3760   -10.4150    20.2310 hc         1 O5Z       0.060700
     28 H2          18.4700   -11.6840    19.4090 hc         1 O5Z       0.060700
     29 H3          14.8010    -8.4340    20.6300 h1         1 O5Z       0.067200
     30 H4          14.6200    -9.8870    19.6670 h1         1 O5Z       0.067200
     31 H6          10.9270   -11.4230    22.6760 ha         1 O5Z       0.169000
     32 H7          16.2940   -16.0410    24.2990 hn         1 O5Z       0.350300
     33 H8          15.6870   -14.5620    24.5690 hn         1 O5Z       0.350300
     34 H10         18.0500   -15.2030    23.0020 h1         1 O5Z       0.069700
     35 H11         17.8250   -13.7770    25.6880 hc         1 O5Z       0.056700
     36 H12         18.3760   -15.4290    25.4490 hc         1 O5Z       0.056700
     37 H13         20.5540   -12.8300    19.8890 hc         1 O5Z       0.057200
     38 H14         20.6680   -12.0770    21.4830 hc         1 O5Z       0.057200
     39 H15         18.1950   -10.7190    22.2710 h1         1 O5Z       0.062700
     40 H16         19.2700   -11.8680    24.9950 ha         1 O5Z       0.133500
     41 H17         21.5470   -11.0750    24.5070 ha         1 O5Z       0.131000
     42 H18         23.3470   -12.6960    23.9890 ha         1 O5Z       0.131000
     43 H19         22.8430   -15.1210    23.9770 ha         1 O5Z       0.131000
     44 H20         20.5640   -15.9120    24.4720 ha         1 O5Z       0.133500
     45 H21         18.6800   -14.2080    20.5930 h1         1 O5Z       0.056700
     46 H22         19.6840   -14.1800    22.0500 h1         1 O5Z       0.056700
     47 H23         16.6100    -9.3120    21.7180 hn         1 O5Z       0.319500
     48 H5          12.4110   -11.3550    20.3720 ha         1 O5Z       0.167000
@<TRIPOS>BOND
     1     1    10 1   
     2     1    11 1   
     3     1    27 1   
     4     1    28 1   
     5     2    11 1   
     6     2    23 1   
     7     2    24 2   
     8     3    12 1   
     9     3    23 1   
    10     3    29 1   
    11     3    30 1   
    12     4     5 1   
    13     4    12 2   
    14     4    48 1   
    15     5    13 2   
    16     5    31 1   
    17     6     7 1   
    18     6    32 1   
    19     6    33 1   
    20     7     9 1   
    21     7    20 1   
    22     7    34 1   
    23     8    20 2   
    24     9    14 1   
    25     9    35 1   
    26     9    36 1   
    27    10    21 1   
    28    10    37 1   
    29    10    38 1   
    30    11    22 1   
    31    11    39 1   
    32    12    25 1   
    33    13    25 1   
    34    13    26 1   
    35    14    15 ar  
    36    14    19 ar  
    37    15    16 ar  
    38    15    40 1   
    39    16    17 ar  
    40    16    41 1   
    41    17    18 ar  
    42    17    42 1   
    43    18    19 ar  
    44    18    43 1   
    45    19    44 1   
    46    20    22 1   
    47    21    22 1   
    48    21    45 1   
    49    21    46 1   
    50    23    47 1   
@<TRIPOS>SUBSTRUCTURE
     1 O5Z         1 TEMP              0 ****  ****    0 ROOT
