@<TRIPOS>MOLECULE
O5Z
   48    50     1     0     0
SMALL
No Charge or Current Charge


@<TRIPOS>ATOM
      1 C11         18.7510   -11.4370    20.2750 c5         1 O5Z      -0.085400
      2 C13         16.2920   -11.3970    20.8740 c          1 O5Z       0.605100
      3 C14         14.6500    -9.5470    20.4000 c3         1 O5Z       0.084700
      4 C16         12.7550   -10.6690    21.7900 cc         1 O5Z      -0.149000
      5 C17         11.9800   -10.2290    22.8800 cc         1 O5Z      -0.143000
      6 N           16.5350   -15.9130    23.6620 n8         1 O5Z      -0.977200
      7 C           17.6900   -14.9550    23.5430 c3         1 O5Z       0.097500
      8 O           16.3630   -12.9010    23.5340 o          1 O5Z      -0.612100
      9 C1          18.4460   -14.8860    24.8950 c3         1 O5Z      -0.070100
     10 C10         19.9700   -12.2190    20.8170 c5         1 O5Z      -0.095400
     11 C12         17.7370   -11.5510    21.4540 c5         1 O5Z       0.031700
     12 C15         13.5950    -9.6350    21.4720 cd         1 O5Z       0.111300
     13 C18         12.4010    -8.9580    23.1530 cd         1 O5Z       0.168200
     14 C2          19.7880   -14.1730    24.7830 ca         1 O5Z      -0.082300
     15 C3          19.8680   -12.7760    24.9530 ca         1 O5Z      -0.106500
     16 C4          21.0990   -12.1140    24.8110 ca         1 O5Z      -0.112000
     17 C5          22.2590   -12.8450    24.5040 ca         1 O5Z      -0.112000
     18 C6          22.1870   -14.2380    24.3420 ca         1 O5Z      -0.112000
     19 C7          20.9550   -14.9010    24.4820 ca         1 O5Z      -0.106500
     20 C8          17.3120   -13.5040    23.0390 c          1 O5Z       0.620100
     21 C9          19.2930   -13.4780    21.4100 c5         1 O5Z       0.108000
     22 N1          18.0690   -12.8980    22.0040 n          1 O5Z      -0.391800
     23 N2          15.9480   -10.0610    20.8540 ns         1 O5Z      -0.501900
     24 O1          15.5460   -12.2860    20.4810 o          1 O5Z      -0.580100
     25 O2          13.4010    -8.5520    22.3020 os         1 O5Z      -0.219000
     26 Br          11.7780    -7.7960    24.5000 br         1 O5Z      -0.103200
     27 H1          18.9910   -10.3960    20.0260 hc         1 O5Z       0.060700
     28 H2          18.3650   -11.9080    19.3620 hc         1 O5Z       0.060700
     29 H3          14.7700    -8.4990    20.0970 h1         1 O5Z       0.067200
     30 H4          14.3210   -10.1150    19.5190 h1         1 O5Z       0.067200
     31 H6          11.2100   -10.7950    23.3940 ha         1 O5Z       0.151000
     32 H7          16.8440   -16.7680    24.1400 hn         1 O5Z       0.405500
     33 H8          15.8360   -15.5130    24.3010 hn         1 O5Z       0.405500
     34 H10         18.3730   -15.3990    22.8080 h1         1 O5Z       0.069700
     35 H11         17.8140   -14.3860    25.6400 hc         1 O5Z       0.056700
     36 H12         18.6090   -15.9040    25.2730 hc         1 O5Z       0.056700
     37 H13         20.7010   -12.4630    20.0390 hc         1 O5Z       0.057200
     38 H14         20.4930   -11.6500    21.5960 hc         1 O5Z       0.057200
     39 H15         17.9130   -10.7790    22.2160 h1         1 O5Z       0.062700
     40 H16         18.9740   -12.2000    25.1850 ha         1 O5Z       0.115500
     41 H17         21.1540   -11.0350    24.9370 ha         1 O5Z       0.113000
     42 H18         23.2120   -12.3320    24.3930 ha         1 O5Z       0.113000
     43 H19         23.0850   -14.8050    24.1050 ha         1 O5Z       0.113000
     44 H20         20.9080   -15.9790    24.3460 ha         1 O5Z       0.115500
     45 H21         19.0370   -14.2060    20.6290 h1         1 O5Z       0.056700
     46 H22         19.9440   -13.9670    22.1430 h1         1 O5Z       0.056700
     47 H23         16.6350    -9.4010    21.2010 hn         1 O5Z       0.319500
     48 H5          12.6960   -11.6400    21.3080 ha         1 O5Z       0.149000
@<TRIPOS>BOND
     1     1    10 1   
     2     1    11 1   
     3     1    27 1   
     4     1    28 1   
     5     2    11 1   
     6     2    23 1   
     7     2    24 2   
     8     3    12 1   
     9     3    23 1   
    10     3    29 1   
    11     3    30 1   
    12     4     5 1   
    13     4    12 2   
    14     4    48 1   
    15     5    13 2   
    16     5    31 1   
    17     6     7 1   
    18     6    32 1   
    19     6    33 1   
    20     7     9 1   
    21     7    20 1   
    22     7    34 1   
    23     8    20 2   
    24     9    14 1   
    25     9    35 1   
    26     9    36 1   
    27    10    21 1   
    28    10    37 1   
    29    10    38 1   
    30    11    22 1   
    31    11    39 1   
    32    12    25 1   
    33    13    25 1   
    34    13    26 1   
    35    14    15 ar  
    36    14    19 ar  
    37    15    16 ar  
    38    15    40 1   
    39    16    17 ar  
    40    16    41 1   
    41    17    18 ar  
    42    17    42 1   
    43    18    19 ar  
    44    18    43 1   
    45    19    44 1   
    46    20    22 1   
    47    21    22 1   
    48    21    45 1   
    49    21    46 1   
    50    23    47 1   
@<TRIPOS>SUBSTRUCTURE
     1 O5Z         1 TEMP              0 ****  ****    0 ROOT
