@<TRIPOS>MOLECULE
O60
   44    43     1     0     0
SMALL
abcg2


@<TRIPOS>ATOM
      1 C1           5.6990    -0.3620     0.1410 c3         1 O60       0.207600
      2 N1           8.1480    -0.4170    -1.7320 n8         1 O60      -1.059100
      3 O1           8.5150    -1.2480     0.5740 o          1 O60      -0.554750
      4 S1           8.2800    -0.0170    -0.1490 s6         1 O60       1.401800
      5 C2           4.4430     0.4790     0.1410 c3         1 O60      -0.083400
      6 N2          -8.1430     0.4820    -1.7160 n8         1 O60      -1.059100
      7 O2           9.1320     1.1260     0.0810 o          1 O60      -0.554750
      8 S2          -8.2610     0.0320    -0.1450 s6         1 O60       1.401800
      9 C3           3.1940    -0.3970     0.1340 c3         1 O60      -0.076900
     10 O3           6.8270     0.5440     0.1620 os         1 O60      -0.569200
     11 C4           1.9110     0.4250     0.1410 c3         1 O60      -0.073900
     12 O4          -6.8090    -0.5500     0.1300 os         1 O60      -0.569200
     13 C5           0.6520    -0.4310     0.1230 c3         1 O60      -0.074400
     14 O5          -8.4790     1.2410     0.6190 o          1 O60      -0.554750
     15 C6          -0.6300     0.3930     0.1360 c3         1 O60      -0.074400
     16 O6          -9.1200    -1.1120     0.0600 o          1 O60      -0.554750
     17 C7          -1.8910    -0.4600     0.1130 c3         1 O60      -0.073900
     18 C8          -3.1710     0.3660     0.1320 c3         1 O60      -0.076900
     19 C9          -4.4240    -0.5020     0.1070 c3         1 O60      -0.083400
     20 C10         -5.6750     0.3480     0.1280 c3         1 O60       0.207600
     21 H1           5.7420    -1.0060     1.0220 h1         1 O60       0.053700
     22 H1A          5.7440    -0.9890    -0.7530 h1         1 O60       0.053700
     23 HN1          8.2060     0.3750    -2.3610 hn         1 O60       0.484750
     24 HN1A         8.7850    -1.1570    -2.0050 hn         1 O60       0.484750
     25 H2           4.4320     1.1250     1.0240 hc         1 O60       0.059200
     26 H2A          4.4400     1.1300    -0.7370 hc         1 O60       0.059200
     27 HN2         -8.2110    -0.2910    -2.3690 hn         1 O60       0.484750
     28 HN2A        -8.7840     1.2290    -1.9580 hn         1 O60       0.484750
     29 H3           3.2060    -1.0460    -0.7480 hc         1 O60       0.040700
     30 H3A          3.2050    -1.0610     1.0040 hc         1 O60       0.040700
     31 H4           1.8990     1.0710     1.0250 hc         1 O60       0.040700
     32 H4A          1.9060     1.0960    -0.7260 hc         1 O60       0.040700
     33 H5           0.6620    -1.0740    -0.7640 hc         1 O60       0.038700
     34 H5A          0.6580    -1.1050     0.9870 hc         1 O60       0.038700
     35 H6          -0.6410     1.0340     1.0250 hc         1 O60       0.038700
     36 H6A         -0.6340     1.0700    -0.7260 hc         1 O60       0.038700
     37 H7          -1.8830    -1.0970    -0.7780 hc         1 O60       0.040700
     38 H7A         -1.8860    -1.1390     0.9730 hc         1 O60       0.040700
     39 H8          -3.1800     1.0010     1.0240 hc         1 O60       0.040700
     40 H8A         -3.1770     1.0450    -0.7280 hc         1 O60       0.040700
     41 H9          -4.4220    -1.1270    -0.7900 hc         1 O60       0.059200
     42 H9A         -4.4210    -1.1740     0.9700 hc         1 O60       0.059200
     43 H10         -5.7170     0.9950    -0.7510 h1         1 O60       0.053700
     44 H10A        -5.7110     0.9710     1.0240 h1         1 O60       0.053700
@<TRIPOS>BOND
     1     1     5 1   
     2     1    10 1   
     3     1    21 1   
     4     1    22 1   
     5     2     4 1   
     6     2    23 1   
     7     2    24 1   
     8     3     4 2   
     9     4     7 2   
    10     4    10 1   
    11     5     9 1   
    12     5    25 1   
    13     5    26 1   
    14     6     8 1   
    15     6    27 1   
    16     6    28 1   
    17     8    12 1   
    18     8    14 2   
    19     8    16 2   
    20     9    11 1   
    21     9    29 1   
    22     9    30 1   
    23    11    13 1   
    24    11    31 1   
    25    11    32 1   
    26    12    20 1   
    27    13    15 1   
    28    13    33 1   
    29    13    34 1   
    30    15    17 1   
    31    15    35 1   
    32    15    36 1   
    33    17    18 1   
    34    17    37 1   
    35    17    38 1   
    36    18    19 1   
    37    18    39 1   
    38    18    40 1   
    39    19    20 1   
    40    19    41 1   
    41    19    42 1   
    42    20    43 1   
    43    20    44 1   
@<TRIPOS>SUBSTRUCTURE
     1 O60         1 TEMP              0 ****  ****    0 ROOT
