@<TRIPOS>MOLECULE
O60
   44    43     1     0     0
SMALL
No Charge or Current Charge


@<TRIPOS>ATOM
      1 C1           5.7870    -0.6220    -0.0290 c3         1 O60       0.207600
      2 N1           8.8730     0.1760    -1.3990 n8         1 O60      -1.059100
      3 O1           8.2950    -1.9060    -0.1710 o          1 O60      -0.554750
      4 S1           8.3930    -0.4580     0.0010 s6         1 O60       1.401800
      5 C2           4.5300     0.2690    -0.0150 c3         1 O60      -0.083400
      6 N2          -8.8530    -0.1420    -1.4120 n8         1 O60      -1.059100
      7 O2           9.2350     0.1680     1.0160 o          1 O60      -0.554750
      8 S2          -8.3750     0.4430     0.0100 s6         1 O60       1.401800
      9 C3           3.2140    -0.5400    -0.0300 c3         1 O60      -0.076900
     10 O3           6.9260     0.2510    -0.0110 os         1 O60      -0.569200
     11 C4           1.9550     0.3550    -0.0150 c3         1 O60      -0.073900
     12 O4          -6.9070    -0.2640    -0.0250 os         1 O60      -0.569200
     13 C5           0.6390    -0.4540    -0.0300 c3         1 O60      -0.074400
     14 O5          -8.2760     1.8970    -0.1130 o          1 O60      -0.554750
     15 C6          -0.6200     0.4410    -0.0150 c3         1 O60      -0.074400
     16 O6          -9.2170    -0.2170     1.0020 o          1 O60      -0.554750
     17 C7          -1.9360    -0.3680    -0.0300 c3         1 O60      -0.073900
     18 C8          -3.1950     0.5270    -0.0140 c3         1 O60      -0.076900
     19 C9          -4.5120    -0.2820    -0.0290 c3         1 O60      -0.083400
     20 C10         -5.7680     0.6080    -0.0130 c3         1 O60       0.207600
     21 H1           5.7760    -1.2790     0.8510 h1         1 O60       0.053700
     22 H1A          5.7800    -1.2460    -0.9330 h1         1 O60       0.053700
     23 HN1          8.0960     0.8230    -1.5050 hn         1 O60       0.484750
     24 HN1A         9.6260     0.7590    -1.0460 hn         1 O60       0.484750
     25 H2           4.5550     0.9050     0.8780 hc         1 O60       0.059200
     26 H2A          4.5570     0.9350    -0.8860 hc         1 O60       0.059200
     27 HN2         -8.0770    -0.7850    -1.5400 hn         1 O60       0.484750
     28 HN2A        -9.6060    -0.7360    -1.0790 hn         1 O60       0.484750
     29 H3           3.1920    -1.1770    -0.9230 hc         1 O60       0.040700
     30 H3A          3.1910    -1.2070     0.8410 hc         1 O60       0.040700
     31 H4           1.9760     0.9920     0.8780 hc         1 O60       0.040700
     32 H4A          1.9770     1.0230    -0.8860 hc         1 O60       0.040700
     33 H5           0.6180    -1.0910    -0.9230 hc         1 O60       0.038700
     34 H5A          0.6170    -1.1210     0.8400 hc         1 O60       0.038700
     35 H6          -0.5990     1.0780     0.8780 hc         1 O60       0.038700
     36 H6A         -0.5980     1.1080    -0.8850 hc         1 O60       0.038700
     37 H7          -1.9570    -1.0050    -0.9230 hc         1 O60       0.040700
     38 H7A         -1.9580    -1.0360     0.8410 hc         1 O60       0.040700
     39 H8          -3.1730     1.1640     0.8790 hc         1 O60       0.040700
     40 H8A         -3.1730     1.1950    -0.8850 hc         1 O60       0.040700
     41 H9          -4.5370    -0.9180    -0.9230 hc         1 O60       0.059200
     42 H9A         -4.5370    -0.9490     0.8420 hc         1 O60       0.059200
     43 H10         -5.7600     1.2640    -0.8950 h1         1 O60       0.053700
     44 H10A        -5.7580     1.2350     0.8900 h1         1 O60       0.053700
@<TRIPOS>BOND
     1     1     5 1   
     2     1    10 1   
     3     1    21 1   
     4     1    22 1   
     5     2     4 1   
     6     2    23 1   
     7     2    24 1   
     8     3     4 2   
     9     4     7 2   
    10     4    10 1   
    11     5     9 1   
    12     5    25 1   
    13     5    26 1   
    14     6     8 1   
    15     6    27 1   
    16     6    28 1   
    17     8    12 1   
    18     8    14 2   
    19     8    16 2   
    20     9    11 1   
    21     9    29 1   
    22     9    30 1   
    23    11    13 1   
    24    11    31 1   
    25    11    32 1   
    26    12    20 1   
    27    13    15 1   
    28    13    33 1   
    29    13    34 1   
    30    15    17 1   
    31    15    35 1   
    32    15    36 1   
    33    17    18 1   
    34    17    37 1   
    35    17    38 1   
    36    18    19 1   
    37    18    39 1   
    38    18    40 1   
    39    19    20 1   
    40    19    41 1   
    41    19    42 1   
    42    20    43 1   
    43    20    44 1   
@<TRIPOS>SUBSTRUCTURE
     1 O60         1 TEMP              0 ****  ****    0 ROOT
