@<TRIPOS>MOLECULE
O61
   63    67     1     0     0
SMALL
abcg2


@<TRIPOS>ATOM
      1 C20         -2.4350    -0.5260     0.4120 c          1 O61       0.627700
      2 C21         -3.6860     0.1650    -0.0240 ca         1 O61      -0.169600
      3 O22         -2.3320    -0.9860     1.5390 o          1 O61      -0.597100
      4 C23         -4.0720     0.2760    -1.3580 ca         1 O61      -0.047000
      5 C24         -5.2520     0.9110    -1.7000 ca         1 O61      -0.162000
      6 C25         -4.5140     0.6940     0.9600 ca         1 O61       0.001000
      7 C26         -5.7000     1.3290     0.6270 ca         1 O61      -0.172000
      8 C27         -6.0800     1.4390    -0.7140 ca         1 O61       0.010000
      9 N28         -7.2890     2.0220    -1.0730 ns         1 O61      -0.150000
     10 C29         -8.0120     2.9290    -0.3590 c          1 O61       0.578000
     11 C30         -7.4140     3.3470     0.9610 c6         1 O61      -0.059400
     12 S31         -6.7800     1.9240     1.8760 ss         1 O61      -0.110000
     13 O32         -9.0510     3.3910    -0.7830 o          1 O61      -0.520000
     14 N19         -1.4510    -0.5830    -0.5040 ns         1 O61      -0.493900
     15 C17         -0.2200    -1.3000    -0.3080 c3         1 O61       0.033700
     16 C16          0.9420    -0.4210    -0.7600 c          1 O61       0.588100
     17 O39          0.8310     0.3300    -1.7180 o          1 O61      -0.606100
     18 C18         -0.2030    -2.6170    -1.1130 c3         1 O61      -0.042100
     19 C33         -1.3580    -3.5000    -0.7410 ca         1 O61      -0.084300
     20 C34         -2.5610    -3.4260    -1.4370 ca         1 O61      -0.099500
     21 C38         -1.2640    -4.3720     0.3410 ca         1 O61      -0.099500
     22 C35         -3.6490    -4.2030    -1.0600 ca         1 O61      -0.104500
     23 C37         -2.3460    -5.1530     0.7190 ca         1 O61      -0.104500
     24 C36         -3.5440    -5.0690     0.0190 ca         1 O61      -0.103000
     25 C1           7.4450     1.8920     0.6670 ca         1 O61      -0.089000
     26 C2           8.1300     1.6500    -0.5100 ca         1 O61      -0.094000
     27 C3           7.6090     0.7260    -1.4020 ca         1 O61       0.133000
     28 C4           6.4360     0.0420    -1.1290 ca         1 O61      -0.098000
     29 C5           5.7450     0.2660     0.0570 ca         1 O61      -0.039300
     30 C6           6.2700     1.2090     0.9400 ca         1 O61      -0.007200
     31 N8           5.6130     1.4820     2.1660 na         1 O61       0.003500
     32 C9           6.0470     1.3040     3.4180 cc         1 O61       0.390400
     33 N10          5.1170     1.7240     4.2320 nd         1 O61      -0.379000
     34 N11          4.1190     2.1580     3.4590 nd         1 O61      -0.039000
     35 N12          4.4000     2.0250     2.2250 nc         1 O61      -0.195800
     36 C13          4.4790    -0.4970     0.3240 c3         1 O61      -0.051100
     37 C14          3.2880     0.1500    -0.3770 c3         1 O61       0.105000
     38 N15          2.0770    -0.5820    -0.0720 ns         1 O61      -0.500900
     39 H23         -3.4740    -0.1460    -2.1550 ha         1 O61       0.118000
     40 H24         -5.5420     0.9870    -2.7400 ha         1 O61       0.122000
     41 H25         -4.2300     0.6150     2.0010 ha         1 O61       0.150000
     42 HN28        -7.6280     1.8320    -2.0070 hn         1 O61       0.165000
     43 H30         -6.6150     4.0740     0.7950 h1         1 O61       0.104700
     44 H30A        -8.1820     3.8160     1.5740 h1         1 O61       0.104700
     45 HN19        -1.5510    -0.0950    -1.3800 hn         1 O61       0.333500
     46 H17         -0.1290    -1.5330     0.7540 h1         1 O61       0.092700
     47 H18         -0.2350    -2.3800    -2.1790 hc         1 O61       0.057200
     48 H18A         0.7450    -3.1270    -0.9250 hc         1 O61       0.057200
     49 H34         -2.6500    -2.7530    -2.2820 ha         1 O61       0.106000
     50 H38         -0.3330    -4.4390     0.8930 ha         1 O61       0.106000
     51 H35         -4.5770    -4.1320    -1.6120 ha         1 O61       0.112500
     52 H37         -2.2560    -5.8290     1.5590 ha         1 O61       0.112500
     53 H36         -4.3880    -5.6800     0.3130 ha         1 O61       0.113000
     54 H1           7.8280     2.6190     1.3700 ha         1 O61       0.136000
     55 H2           9.0480     2.1780    -0.7260 ha         1 O61       0.142000
     56 H4           6.0550    -0.6840    -1.8350 ha         1 O61       0.141000
     57 H9           7.0010     0.8760     3.6770 h5         1 O61       0.079100
     58 H13          4.6000    -1.5200    -0.0380 hc         1 O61       0.059200
     59 H13A         4.2890    -0.5670     1.3970 hc         1 O61       0.059200
     60 H14          3.1920     1.1940    -0.0690 h1         1 O61       0.066700
     61 H14A         3.4490     0.1450    -1.4560 h1         1 O61       0.066700
     62 HN15         2.0630    -1.1490     0.7610 hn         1 O61       0.319500
     63 CL7          8.4440     0.4130    -2.8830 cl         1 O61      -0.176000
@<TRIPOS>BOND
     1     1     2 1   
     2     1     3 2   
     3     1    14 1   
     4     2     4 ar  
     5     2     6 ar  
     6     4     5 ar  
     7     4    39 1   
     8     5     8 ar  
     9     5    40 1   
    10     6     7 ar  
    11     6    41 1   
    12     7     8 ar  
    13     7    12 1   
    14     8     9 1   
    15     9    10 1   
    16     9    42 1   
    17    10    11 1   
    18    10    13 2   
    19    11    12 1   
    20    11    43 1   
    21    11    44 1   
    22    14    15 1   
    23    14    45 1   
    24    15    16 1   
    25    15    18 1   
    26    15    46 1   
    27    16    17 2   
    28    16    38 1   
    29    18    19 1   
    30    18    47 1   
    31    18    48 1   
    32    19    20 ar  
    33    19    21 ar  
    34    20    22 ar  
    35    20    49 1   
    36    21    23 ar  
    37    21    50 1   
    38    22    24 ar  
    39    22    51 1   
    40    23    24 ar  
    41    23    52 1   
    42    24    53 1   
    43    25    26 ar  
    44    25    30 ar  
    45    25    54 1   
    46    26    27 ar  
    47    26    55 1   
    48    27    28 ar  
    49    27    63 1   
    50    28    29 ar  
    51    28    56 1   
    52    29    30 ar  
    53    29    36 1   
    54    30    31 1   
    55    31    32 1   
    56    31    35 1   
    57    32    33 2   
    58    32    57 1   
    59    33    34 1   
    60    34    35 2   
    61    36    37 1   
    62    36    58 1   
    63    36    59 1   
    64    37    38 1   
    65    37    60 1   
    66    37    61 1   
    67    38    62 1   
@<TRIPOS>SUBSTRUCTURE
     1 O61         1 TEMP              0 ****  ****    0 ROOT
