@<TRIPOS>MOLECULE
O61
   63    67     1     0     0
SMALL
No Charge or Current Charge


@<TRIPOS>ATOM
      1 C20         -2.5330    -0.3970     0.5270 c          1 O61       0.627700
      2 C21         -3.7730     0.3410     0.0730 ca         1 O61      -0.169600
      3 O22         -2.4910    -1.0050     1.5880 o          1 O61      -0.597100
      4 C23         -3.8340     1.0370    -1.1580 ca         1 O61      -0.047000
      5 C24         -5.0110     1.7010    -1.5430 ca         1 O61      -0.162000
      6 C25         -4.9210     0.3260     0.8970 ca         1 O61       0.001000
      7 C26         -6.0940     0.9990     0.5120 ca         1 O61      -0.172000
      8 C27         -6.1420     1.6920    -0.7130 ca         1 O61       0.010000
      9 N28         -7.3190     2.3480    -1.1460 ns         1 O61      -0.150000
     10 C29         -8.4800     2.6090    -0.4460 c          1 O61       0.578000
     11 C30         -8.4060     2.4650     1.0750 c6         1 O61      -0.059400
     12 S31         -7.5260     0.9250     1.5790 ss         1 O61      -0.110000
     13 O32         -9.5020     2.9830    -1.0080 o          1 O61      -0.520000
     14 N19         -1.4400    -0.3420    -0.3130 ns         1 O61      -0.493900
     15 C17         -0.1700    -1.0800    -0.1130 c3         1 O61       0.033700
     16 C16          1.0430    -0.1940    -0.5190 c          1 O61       0.588100
     17 O39          0.9300     0.8470    -1.1550 o          1 O61      -0.606100
     18 C18         -0.1750    -2.4180    -0.9000 c3         1 O61      -0.042100
     19 C33         -1.3670    -3.3120    -0.5720 ca         1 O61      -0.084300
     20 C34         -2.5050    -3.3160    -1.4030 ca         1 O61      -0.099500
     21 C38         -1.3420    -4.1350     0.5710 ca         1 O61      -0.099500
     22 C35         -3.6070    -4.1320    -1.0910 ca         1 O61      -0.104500
     23 C37         -2.4430    -4.9510     0.8810 ca         1 O61      -0.104500
     24 C36         -3.5760    -4.9500     0.0500 ca         1 O61      -0.103000
     25 C1           7.6910     1.8060     0.4000 ca         1 O61      -0.089000
     26 C2           8.5120     1.2830    -0.6130 ca         1 O61      -0.094000
     27 C3           8.1110     0.1380    -1.3140 ca         1 O61       0.133000
     28 C4           6.8920    -0.4870    -1.0060 ca         1 O61      -0.098000
     29 C5           6.0590     0.0250     0.0100 ca         1 O61      -0.039300
     30 C6           6.4670     1.1840     0.7200 ca         1 O61      -0.007200
     31 N8           5.6830     1.7350     1.7330 na         1 O61       0.003500
     32 C9           5.6070     1.2680     3.0120 cc         1 O61       0.390400
     33 N10          4.7920     2.0990     3.6390 nd         1 O61      -0.379000
     34 N11          4.4100     3.0550     2.7130 nd         1 O61      -0.039000
     35 N12          4.9570     2.8540     1.5410 nc         1 O61      -0.195800
     36 C13          4.7310    -0.6800     0.2970 c3         1 O61      -0.051100
     37 C14          3.5420     0.0230    -0.3830 c3         1 O61       0.105000
     38 N15          2.2740    -0.6580    -0.1080 ns         1 O61      -0.500900
     39 H23         -2.9820     1.0720    -1.8320 ha         1 O61       0.118000
     40 H24         -5.0400     2.2250    -2.4960 ha         1 O61       0.122000
     41 H25         -4.9060    -0.2100     1.8440 ha         1 O61       0.150000
     42 HN28        -7.3570     2.5520    -2.1360 hn         1 O61       0.165000
     43 H30         -7.8500     3.3290     1.4600 h1         1 O61       0.104700
     44 H30A        -9.4240     2.4650     1.4860 h1         1 O61       0.104700
     45 HN19        -1.5300     0.2300    -1.1420 hn         1 O61       0.333500
     46 H17         -0.0510    -1.3030     0.9550 h1         1 O61       0.092700
     47 H18         -0.1610    -2.1960    -1.9750 hc         1 O61       0.057200
     48 H18A         0.7560    -2.9610    -0.6970 hc         1 O61       0.057200
     49 H34         -2.5400    -2.6830    -2.2860 ha         1 O61       0.106000
     50 H38         -0.4700    -4.1380     1.2220 ha         1 O61       0.106000
     51 H35         -4.4840    -4.1280    -1.7340 ha         1 O61       0.112500
     52 H37         -2.4190    -5.5830     1.7660 ha         1 O61       0.112500
     53 H36         -4.4290    -5.5810     0.2920 ha         1 O61       0.113000
     54 H1           8.0070     2.6970     0.9400 ha         1 O61       0.136000
     55 H2           9.4560     1.7660    -0.8550 ha         1 O61       0.142000
     56 H4           6.5950    -1.3710    -1.5650 ha         1 O61       0.141000
     57 H9           6.1220     0.3940     3.3910 h5         1 O61       0.079100
     58 H13          4.7730    -1.7180    -0.0550 hc         1 O61       0.059200
     59 H13A         4.5480    -0.7420     1.3760 hc         1 O61       0.059200
     60 H14          3.4710     1.0590    -0.0260 h1         1 O61       0.066700
     61 H14A         3.7030     0.0480    -1.4690 h1         1 O61       0.066700
     62 HN15         2.2910    -1.5240     0.4180 hn         1 O61       0.319500
     63 Cl7          9.1350    -0.5160    -2.5850 cl         1 O61      -0.176000
@<TRIPOS>BOND
     1     1     2 1   
     2     1     3 2   
     3     1    14 1   
     4     2     4 ar  
     5     2     6 ar  
     6     4     5 ar  
     7     4    39 1   
     8     5     8 ar  
     9     5    40 1   
    10     6     7 ar  
    11     6    41 1   
    12     7     8 ar  
    13     7    12 1   
    14     8     9 1   
    15     9    10 1   
    16     9    42 1   
    17    10    11 1   
    18    10    13 2   
    19    11    12 1   
    20    11    43 1   
    21    11    44 1   
    22    14    15 1   
    23    14    45 1   
    24    15    16 1   
    25    15    18 1   
    26    15    46 1   
    27    16    17 2   
    28    16    38 1   
    29    18    19 1   
    30    18    47 1   
    31    18    48 1   
    32    19    20 ar  
    33    19    21 ar  
    34    20    22 ar  
    35    20    49 1   
    36    21    23 ar  
    37    21    50 1   
    38    22    24 ar  
    39    22    51 1   
    40    23    24 ar  
    41    23    52 1   
    42    24    53 1   
    43    25    26 ar  
    44    25    30 ar  
    45    25    54 1   
    46    26    27 ar  
    47    26    55 1   
    48    27    28 ar  
    49    27    63 1   
    50    28    29 ar  
    51    28    56 1   
    52    29    30 ar  
    53    29    36 1   
    54    30    31 1   
    55    31    32 1   
    56    31    35 1   
    57    32    33 2   
    58    32    57 1   
    59    33    34 1   
    60    34    35 2   
    61    36    37 1   
    62    36    58 1   
    63    36    59 1   
    64    37    38 1   
    65    37    60 1   
    66    37    61 1   
    67    38    62 1   
@<TRIPOS>SUBSTRUCTURE
     1 O61         1 TEMP              0 ****  ****    0 ROOT
