@<TRIPOS>MOLECULE
O62
   59    63     1     0     0
SMALL
No Charge or Current Charge


@<TRIPOS>ATOM
      1 C2          -4.9720     2.3390    -0.4320 cc         1 O62       0.202300
      2 C3          -4.0550     1.3310    -0.4390 cd         1 O62      -0.204300
      3 C4          -4.7540     0.1980     0.0230 cd         1 O62       0.346500
      4 C6          -4.8710     3.7990    -0.8100 c3         1 O62      -0.100000
      5 C10         -3.7590    -1.5810     1.4620 ca         1 O62       0.153000
      6 C11         -3.1710    -2.8480     1.6130 ca         1 O62      -0.105000
      7 C12         -2.9980    -3.6840     0.4970 ca         1 O62      -0.080000
      8 C13         -3.4100    -3.2460    -0.7720 ca         1 O62      -0.105000
      9 C14         -3.9970    -1.9780    -0.9260 ca         1 O62       0.153000
     10 C22          5.9920    -0.0760     1.2790 ca         1 O62      -0.051000
     11 C24          3.8150    -0.0100     0.1300 cp         1 O62      -0.056000
     12 C25          4.4730    -0.4110    -1.0570 ca         1 O62      -0.149000
     13 C26          5.8590    -0.6450    -1.0820 ca         1 O62      -0.049000
     14 C27          2.3370     0.2360     0.1530 cp         1 O62      -0.031000
     15 C37         -2.6070     1.3680    -0.8380 c3         1 O62       0.246900
     16 O1          -6.1770     1.8450     0.0130 os         1 O62      -0.070700
     17 N5          -6.0200     0.4460     0.3070 nc         1 O62      -0.340300
     18 C7          -5.8110     4.1490    -1.9850 c3         1 O62      -0.087100
     19 C8          -5.1140     4.7180     0.4070 c3         1 O62      -0.087100
     20 C9          -4.1880    -1.1420     0.1920 ca         1 O62      -0.120500
     21 C17          8.7680    -0.5080     1.2830 ca         1 O62      -0.115000
     22 C18          8.1210    -0.0990     2.4590 ca         1 O62      -0.108000
     23 C19          6.7360     0.1140     2.4580 ca         1 O62      -0.145000
     24 C20          8.0400    -0.7130     0.0910 ca         1 O62      -0.103600
     25 C21          6.6360    -0.4860     0.0870 ca         1 O62      -0.008000
     26 C23          4.6030     0.1530     1.2940 ca         1 O62      -0.102000
     27 C28          1.5600    -0.0750     1.2970 ca         1 O62      -0.074500
     28 C29          0.1740     0.1560     1.3170 ca         1 O62      -0.172500
     29 C30         -0.4720     0.7020     0.1990 ca         1 O62       0.117100
     30 C31          0.2810     1.0200    -0.9510 ca         1 O62      -0.172500
     31 C32          1.6680     0.7880    -0.9690 ca         1 O62      -0.074500
     32 O33         -1.8320     0.9000     0.2760 os         1 O62      -0.347100
     33 O35          8.5040    -2.2540    -1.6260 o          1 O62      -0.715000
     34 O36          9.6890    -0.4550    -1.5590 o          1 O62      -0.715000
     35 H6          -3.8500     3.9970    -1.1560 hc         1 O62       0.065700
     36 H11         -2.8450    -3.1790     2.5950 ha         1 O62       0.135500
     37 H12         -2.5420    -4.6650     0.6150 ha         1 O62       0.126000
     38 H13         -3.2720    -3.8860    -1.6400 ha         1 O62       0.135500
     39 H25          3.9030    -0.5570    -1.9710 ha         1 O62       0.096000
     40 H26          6.3140    -0.9480    -2.0210 ha         1 O62       0.158000
     41 H37         -2.4630     0.7170    -1.7100 h1         1 O62       0.045200
     42 H37A        -2.3100     2.3870    -1.1130 h1         1 O62       0.045200
     43 H7          -6.8620     4.0060    -1.7050 hc         1 O62       0.043367
     44 H7A         -5.6780     5.1940    -2.2910 hc         1 O62       0.043367
     45 H7B         -5.5980     3.5120    -2.8520 hc         1 O62       0.043367
     46 H8          -4.4100     4.4810     1.2150 hc         1 O62       0.043367
     47 H8A         -4.9730     5.7710     0.1340 hc         1 O62       0.043367
     48 H8B         -6.1330     4.5980     0.7940 hc         1 O62       0.043367
     49 H17          9.8440    -0.6750     1.2940 ha         1 O62       0.126000
     50 H18          8.6940     0.0520     3.3710 ha         1 O62       0.088000
     51 H19          6.2430     0.4310     3.3740 ha         1 O62       0.087000
     52 H23          4.1320     0.4790     2.2180 ha         1 O62       0.093000
     53 H28          2.0330    -0.5120     2.1730 ha         1 O62       0.117500
     54 H29         -0.4050    -0.0940     2.2030 ha         1 O62       0.113000
     55 H31         -0.1860     1.4500    -1.8320 ha         1 O62       0.113000
     56 H32          2.2320     1.0520    -1.8600 ha         1 O62       0.117500
     57 Cl15        -3.9300    -0.5500     2.8820 cl         1 O62      -0.184000
     58 C34          8.7870    -1.1670    -1.1400 c          1 O62       0.712600
     59 Cl16        -4.4900    -1.4580    -2.5360 cl         1 O62      -0.184000
@<TRIPOS>BOND
     1     1     2 2   
     2     1     4 1   
     3     1    16 1   
     4     2     3 1   
     5     2    15 1   
     6     3    17 2   
     7     3    20 1   
     8     4    18 1   
     9     4    19 1   
    10     4    35 1   
    11     5     6 ar  
    12     5    20 ar  
    13     5    57 1   
    14     6     7 ar  
    15     6    36 1   
    16     7     8 ar  
    17     7    37 1   
    18     8     9 ar  
    19     8    38 1   
    20     9    20 ar  
    21     9    59 1   
    22    10    23 ar  
    23    10    25 ar  
    24    10    26 ar  
    25    11    12 ar  
    26    11    14 1   
    27    11    26 ar  
    28    12    13 ar  
    29    12    39 1   
    30    13    25 ar  
    31    13    40 1   
    32    14    27 ar  
    33    14    31 ar  
    34    15    32 1   
    35    15    41 1   
    36    15    42 1   
    37    16    17 1   
    38    18    43 1   
    39    18    44 1   
    40    18    45 1   
    41    19    46 1   
    42    19    47 1   
    43    19    48 1   
    44    21    22 ar  
    45    21    24 ar  
    46    21    49 1   
    47    22    23 ar  
    48    22    50 1   
    49    23    51 1   
    50    24    25 ar  
    51    24    58 1   
    52    26    52 1   
    53    27    28 ar  
    54    27    53 1   
    55    28    29 ar  
    56    28    54 1   
    57    29    30 ar  
    58    29    32 1   
    59    30    31 ar  
    60    30    55 1   
    61    31    56 1   
    62    33    58 1   
    63    34    58 1   
@<TRIPOS>SUBSTRUCTURE
     1 O62         1 TEMP              0 ****  ****    0 ROOT
