@<TRIPOS>MOLECULE
O62
   59    63     1     0     0
SMALL
bcc


@<TRIPOS>ATOM
      1 C2          -4.9570     2.3120    -0.4940 cc         1 O62       0.312000
      2 C3          -3.9410     1.4130    -0.4940 cd         1 O62      -0.334900
      3 C4          -4.5590     0.2170    -0.0460 cd         1 O62       0.411800
      4 C6          -5.0400     3.7610    -0.8280 c3         1 O62      -0.100000
      5 C10         -3.4100    -1.4660     1.3990 ca         1 O62       0.061400
      6 C11         -2.7460    -2.6670     1.5840 ca         1 O62      -0.123000
      7 C12         -2.5570    -3.5070     0.4980 ca         1 O62      -0.098000
      8 C13         -3.0190    -3.1540    -0.7600 ca         1 O62      -0.123000
      9 C14         -3.6780    -1.9460    -0.9160 ca         1 O62       0.061400
     10 C22          5.8710    -0.2010     1.2870 ca         1 O62      -0.051000
     11 C24          3.7140    -0.0090     0.1720 cp         1 O62      -0.056000
     12 C25          4.3420    -0.4410    -1.0230 ca         1 O62      -0.167000
     13 C26          5.6730    -0.7450    -1.0660 ca         1 O62      -0.067000
     14 C27          2.2760     0.3180     0.1880 cp         1 O62      -0.031000
     15 C37         -2.5090     1.5620    -0.8430 c3         1 O62       0.223700
     16 O1          -6.0740     1.6980    -0.0910 os         1 O62      -0.115100
     17 N5          -5.8230     0.3910     0.1930 nc         1 O62      -0.340300
     18 C7          -6.0430     4.0180    -1.9550 c3         1 O62      -0.087100
     19 C8          -5.3600     4.5920     0.4170 c3         1 O62      -0.087100
     20 C9          -3.8960    -1.0810     0.1520 ca         1 O62      -0.120500
     21 C17          8.6070    -0.7040     1.2460 ca         1 O62      -0.133000
     22 C18          7.9840    -0.3010     2.4420 ca         1 O62      -0.126000
     23 C19          6.6410    -0.0520     2.4640 ca         1 O62      -0.163000
     24 C20          7.9000    -0.8980     0.0830 ca         1 O62      -0.103600
     25 C21          6.4960    -0.6400     0.0850 ca         1 O62      -0.008000
     26 C23          4.4900     0.1010     1.2990 ca         1 O62      -0.120000
     27 C28          1.4850     0.0730     1.3160 ca         1 O62      -0.092500
     28 C29          0.1410     0.3880     1.3360 ca         1 O62      -0.190500
     29 C30         -0.4610     0.9700     0.2190 ca         1 O62       0.117100
     30 C31          0.3060     1.2200    -0.9150 ca         1 O62      -0.190500
     31 C32          1.6550     0.8920    -0.9190 ca         1 O62      -0.092500
     32 O33         -1.7720     1.2590     0.3300 os         1 O62      -0.323900
     33 O35          8.0800    -2.1910    -1.9000 o          1 O62      -0.820300
     34 O36          9.8430    -0.9990    -1.2460 o          1 O62      -0.820300
     35 H6          -4.0480     4.0520    -1.1830 hc         1 O62       0.065700
     36 H11         -2.3790    -2.9420     2.5630 ha         1 O62       0.153500
     37 H12         -2.0390    -4.4470     0.6340 ha         1 O62       0.144000
     38 H13         -2.8680    -3.8080    -1.6070 ha         1 O62       0.153500
     39 H25          3.7490    -0.5530    -1.9230 ha         1 O62       0.114000
     40 H26          6.1060    -1.0870    -1.9930 ha         1 O62       0.176000
     41 H37         -2.2470     0.8660    -1.6470 h1         1 O62       0.045200
     42 H37A        -2.2910     2.5730    -1.2020 h1         1 O62       0.045200
     43 H7          -7.0590     3.7650    -1.6520 hc         1 O62       0.043367
     44 H7A         -6.0290     5.0740    -2.2270 hc         1 O62       0.043367
     45 H7B         -5.7960     3.4410    -2.8460 hc         1 O62       0.043367
     46 H8          -4.6250     4.4260     1.2040 hc         1 O62       0.043367
     47 H8A         -5.3490     5.6520     0.1660 hc         1 O62       0.043367
     48 H8B         -6.3460     4.3530     0.8160 hc         1 O62       0.043367
     49 H17          9.6760    -0.8740     1.2470 ha         1 O62       0.144000
     50 H18          8.5770    -0.1820     3.3400 ha         1 O62       0.106000
     51 H19          6.1520     0.2690     3.3760 ha         1 O62       0.105000
     52 H23          4.0580     0.4570     2.2280 ha         1 O62       0.111000
     53 H28          1.9190    -0.3980     2.1890 ha         1 O62       0.135500
     54 H29         -0.4590     0.1730     2.2110 ha         1 O62       0.131000
     55 H31         -0.1200     1.6810    -1.7960 ha         1 O62       0.131000
     56 H32          2.2330     1.1170    -1.8070 ha         1 O62       0.135500
     57 CL15        -3.6260    -0.4150     2.7510 cl         1 O62      -0.092400
     58 C34          8.6700    -1.4010    -1.1380 c          1 O62       0.923200
     59 CL16        -4.2340    -1.4890    -2.4890 cl         1 O62      -0.092400
@<TRIPOS>BOND
     1     1     2 2   
     2     1     4 1   
     3     1    16 1   
     4     2     3 1   
     5     2    15 1   
     6     3    17 2   
     7     3    20 1   
     8     4    18 1   
     9     4    19 1   
    10     4    35 1   
    11     5     6 ar  
    12     5    20 ar  
    13     5    57 1   
    14     6     7 ar  
    15     6    36 1   
    16     7     8 ar  
    17     7    37 1   
    18     8     9 ar  
    19     8    38 1   
    20     9    20 ar  
    21     9    59 1   
    22    10    23 ar  
    23    10    25 ar  
    24    10    26 ar  
    25    11    12 ar  
    26    11    14 1   
    27    11    26 ar  
    28    12    13 ar  
    29    12    39 1   
    30    13    25 ar  
    31    13    40 1   
    32    14    27 ar  
    33    14    31 ar  
    34    15    32 1   
    35    15    41 1   
    36    15    42 1   
    37    16    17 1   
    38    18    43 1   
    39    18    44 1   
    40    18    45 1   
    41    19    46 1   
    42    19    47 1   
    43    19    48 1   
    44    21    22 ar  
    45    21    24 ar  
    46    21    49 1   
    47    22    23 ar  
    48    22    50 1   
    49    23    51 1   
    50    24    25 ar  
    51    24    58 1   
    52    26    52 1   
    53    27    28 ar  
    54    27    53 1   
    55    28    29 ar  
    56    28    54 1   
    57    29    30 ar  
    58    29    32 1   
    59    30    31 ar  
    60    30    55 1   
    61    31    56 1   
    62    33    58 1   
    63    34    58 1   
@<TRIPOS>SUBSTRUCTURE
     1 O62         1 TEMP              0 ****  ****    0 ROOT
