@<TRIPOS>MOLECULE
O64
   30    30     1     0     0
SMALL
abcg2


@<TRIPOS>ATOM
      1 C1          -2.1210    -0.7360     0.0410 ca         1 O64      -0.203300
      2 C2          -2.1740    -1.7360    -0.9230 ca         1 O64      -0.041000
      3 C3          -1.0480    -2.0680    -1.6580 ca         1 O64      -0.122000
      4 C4           0.1420    -1.3990    -1.4330 ca         1 O64      -0.052000
      5 C5           0.2150    -0.3890    -0.4810 ca         1 O64      -0.154600
      6 C6          -0.9180    -0.0630     0.2520 ca         1 O64       0.199000
      7 CL7         -0.7970     1.1630     1.4620 cl         1 O64      -0.148000
      8 C8           1.5030     0.3660    -0.3340 c          1 O64       0.623700
      9 N9           2.5370    -0.3890     0.0650 ns         1 O64      -0.485900
     10 O10          1.5780     1.5560    -0.5860 o          1 O64      -0.568100
     11 C11          3.8940     0.0810     0.0370 c3         1 O64      -0.014300
     12 C12          4.4550     0.0610    -1.3680 c          1 O64       0.556900
     13 O13          3.8470    -0.3060    -2.3380 o          1 O64      -0.503100
     14 C14          4.7870    -0.7390     0.9720 c3         1 O64      -0.079400
     15 C15          4.4050    -0.5800     2.4350 c3         1 O64      -0.090100
     16 C16         -3.3490    -0.3980     0.8380 c3         1 O64       0.366300
     17 F17         -4.3960    -1.1400     0.4730 f          1 O64      -0.107333
     18 F18         -3.1670    -0.6020     2.1470 f          1 O64      -0.107333
     19 F19         -3.7080     0.8810     0.6830 f          1 O64      -0.107333
     20 H2          -3.0960    -2.2690    -1.1060 ha         1 O64       0.137000
     21 H3          -1.1020    -2.8470    -2.4050 ha         1 O64       0.130000
     22 H4           1.0230    -1.6490    -2.0110 ha         1 O64       0.137000
     23 HN9          2.3860    -1.3750     0.2170 hn         1 O64       0.321500
     24 H11          3.9270     1.1260     0.3660 h1         1 O64       0.099700
     25 H12          5.4960     0.4230    -1.4400 h4         1 O64      -0.006800
     26 H14          4.7480    -1.7920     0.6770 hc         1 O64       0.048200
     27 H14A         5.8200    -0.4180     0.8250 hc         1 O64       0.048200
     28 H15          4.4760     0.4640     2.7460 hc         1 O64       0.041700
     29 H15A         3.3870    -0.9170     2.6290 hc         1 O64       0.041700
     30 H15B         5.0720    -1.1620     3.0700 hc         1 O64       0.041700
@<TRIPOS>BOND
     1     1     2 ar  
     2     1     6 ar  
     3     1    16 1   
     4     2     3 ar  
     5     2    20 1   
     6     3     4 ar  
     7     3    21 1   
     8     4     5 ar  
     9     4    22 1   
    10     5     6 ar  
    11     5     8 1   
    12     6     7 1   
    13     8     9 1   
    14     8    10 2   
    15     9    11 1   
    16     9    23 1   
    17    11    12 1   
    18    11    14 1   
    19    11    24 1   
    20    12    13 2   
    21    12    25 1   
    22    14    15 1   
    23    14    26 1   
    24    14    27 1   
    25    15    28 1   
    26    15    29 1   
    27    15    30 1   
    28    16    17 1   
    29    16    18 1   
    30    16    19 1   
@<TRIPOS>SUBSTRUCTURE
     1 O64         1 TEMP              0 ****  ****    0 ROOT
