@<TRIPOS>MOLECULE
O64
   30    30     1     0     0
SMALL
No Charge or Current Charge


@<TRIPOS>ATOM
      1 C1          -2.1400    -0.7900     0.1560 ca         1 O64      -0.203300
      2 C2          -2.2290    -1.6110    -0.9910 ca         1 O64      -0.041000
      3 C3          -1.1100    -1.8240    -1.8030 ca         1 O64      -0.122000
      4 C4           0.1150    -1.2240    -1.4920 ca         1 O64      -0.052000
      5 C5           0.2410    -0.3920    -0.3550 ca         1 O64      -0.154600
      6 C6          -0.8940    -0.1810     0.4730 ca         1 O64       0.199000
      7 Cl7         -0.7520     0.7840     1.9550 cl         1 O64      -0.148000
      8 C8           1.5740     0.2550    -0.0620 c          1 O64       0.623700
      9 N9           2.6810    -0.4900    -0.4190 ns         1 O64      -0.485900
     10 O10          1.6900     1.3870     0.3840 o          1 O64      -0.568100
     11 C11          4.0940    -0.0680    -0.2520 c3         1 O64      -0.014300
     12 C12          4.9490    -0.5180    -1.4640 c          1 O64       0.556900
     13 O13          4.5490    -1.2750    -2.3460 o          1 O64      -0.503100
     14 C14          4.7020    -0.5770     1.0820 c3         1 O64      -0.079400
     15 C15          3.9920    -0.0600     2.3510 c3         1 O64      -0.090100
     16 C16         -3.3800    -0.5780     1.0430 c3         1 O64       0.366300
     17 F17         -4.4830    -1.2010     0.5660 f          1 O64      -0.107333
     18 F18         -3.1920    -1.0530     2.2950 f          1 O64      -0.107333
     19 F19         -3.7060     0.7300     1.1520 f          1 O64      -0.107333
     20 H2          -3.1650    -2.0940    -1.2650 ha         1 O64       0.137000
     21 H3          -1.1950    -2.4560    -2.6860 ha         1 O64       0.130000
     22 H4           0.9580    -1.3900    -2.1610 ha         1 O64       0.137000
     23 HN9          2.5000    -1.4140    -0.7960 hn         1 O64       0.321500
     24 H11          4.1410     1.0300    -0.2530 h1         1 O64       0.099700
     25 H12          5.9810    -0.1030    -1.4950 h4         1 O64      -0.006800
     26 H14          4.6930    -1.6740     1.0900 hc         1 O64       0.048200
     27 H14A         5.7560    -0.2720     1.1290 hc         1 O64       0.048200
     28 H15          3.9660     1.0370     2.3630 hc         1 O64       0.041700
     29 H15A         2.9630    -0.4330     2.4070 hc         1 O64       0.041700
     30 H15B         4.5220    -0.3990     3.2490 hc         1 O64       0.041700
@<TRIPOS>BOND
     1     1     2 ar  
     2     1     6 ar  
     3     1    16 1   
     4     2     3 ar  
     5     2    20 1   
     6     3     4 ar  
     7     3    21 1   
     8     4     5 ar  
     9     4    22 1   
    10     5     6 ar  
    11     5     8 1   
    12     6     7 1   
    13     8     9 1   
    14     8    10 2   
    15     9    11 1   
    16     9    23 1   
    17    11    12 1   
    18    11    14 1   
    19    11    24 1   
    20    12    13 2   
    21    12    25 1   
    22    14    15 1   
    23    14    26 1   
    24    14    27 1   
    25    15    28 1   
    26    15    29 1   
    27    15    30 1   
    28    16    17 1   
    29    16    18 1   
    30    16    19 1   
@<TRIPOS>SUBSTRUCTURE
     1 O64         1 TEMP              0 ****  ****    0 ROOT
