@<TRIPOS>MOLECULE
O66
   18    18     1     0     0
SMALL
abcg2


@<TRIPOS>ATOM
      1 O1          46.4090   -13.2910    -1.5670 o          1 O66      -0.741500
      2 O2          48.9210    -7.7120    -0.1010 o          1 O66      -0.533000
      3 N1          47.7960    -7.0400    -2.0000 ns         1 O66      -0.486400
      4 C2          46.6720    -9.8180    -0.3310 c3         1 O66      -0.012400
      5 C3          47.5240    -9.2340    -1.4570 c5         1 O66       0.011500
      6 C4          46.9530    -7.6840    -2.8830 c2         1 O66       0.400800
      7 C5          48.2000    -7.9350    -1.0480 c          1 O66       0.532000
      8 N           46.7530    -8.9150    -2.6480 n2         1 O66      -0.560900
      9 C           46.9290   -12.3170    -0.9880 c          1 O66       0.717000
     10 O           48.1110   -12.2270    -0.5940 o          1 O66      -0.741500
     11 C1          45.9920   -11.1240    -0.7050 c3         1 O66      -0.210400
     12 H3          47.3200    -9.9670     0.5350 hc         1 O66       0.029700
     13 H4          45.9200    -9.0790    -0.0380 hc         1 O66       0.029700
     14 H5          48.2960    -9.9680    -1.7130 h1         1 O66       0.152700
     15 H6          46.5170    -7.1320    -3.7070 h5         1 O66       0.035800
     16 H2          45.3280   -10.9730    -1.5600 hc         1 O66       0.027200
     17 H1          45.3350   -11.4160     0.1230 hc         1 O66       0.027200
     18 H7          48.0430    -6.0630    -2.0330 hn         1 O66       0.322500
@<TRIPOS>BOND
     1     1     9 1   
     2     2     7 2   
     3     3     6 1   
     4     3     7 1   
     5     3    18 1   
     6     4     5 1   
     7     4    11 1   
     8     4    12 1   
     9     4    13 1   
    10     5     7 1   
    11     5     8 1   
    12     5    14 1   
    13     6     8 2   
    14     6    15 1   
    15     9    10 1   
    16     9    11 1   
    17    11    16 1   
    18    11    17 1   
@<TRIPOS>SUBSTRUCTURE
     1 O66         1 TEMP              0 ****  ****    0 ROOT
