@<TRIPOS>MOLECULE
O66
   18    18     1     0     0
SMALL
No Charge or Current Charge


@<TRIPOS>ATOM
      1 O1          47.3520   -12.5870    -1.9140 o          1 O66      -0.741500
      2 O2          49.1760    -7.8140    -0.4080 o          1 O66      -0.533000
      3 N1          47.7640    -7.1050    -2.0740 ns         1 O66      -0.486400
      4 C2          46.6840    -9.8200    -0.3740 c3         1 O66      -0.012400
      5 C3          47.4620    -9.2660    -1.6010 c5         1 O66       0.011500
      6 C4          46.7730    -7.5930    -2.8840 c2         1 O66       0.400800
      7 C5          48.2910    -8.0080    -1.2270 c          1 O66       0.532000
      8 N           46.5050    -8.8400    -2.7080 n2         1 O66      -0.560900
      9 C           46.9950   -12.3140    -0.7790 c          1 O66       0.717000
     10 O           47.4410   -12.8600     0.2180 o          1 O66      -0.741500
     11 C1          45.9710   -11.1830    -0.5850 c3         1 O66      -0.210400
     12 H3          47.3730    -9.9260     0.4730 hc         1 O66       0.029700
     13 H4          45.9360    -9.0820    -0.0580 hc         1 O66       0.029700
     14 H5          48.1750   -10.0190    -1.9640 h1         1 O66       0.152700
     15 H6          46.3040    -6.9090    -3.5940 h5         1 O66       0.035800
     16 H2          45.3390   -11.0730    -1.4740 hc         1 O66       0.027200
     17 H1          45.4010   -11.3510     0.3360 hc         1 O66       0.027200
     18 H7          48.0780    -6.1450    -2.0990 hn         1 O66       0.322500
@<TRIPOS>BOND
     1     1     9 1   
     2     2     7 2   
     3     3     6 1   
     4     3     7 1   
     5     3    18 1   
     6     4     5 1   
     7     4    11 1   
     8     4    12 1   
     9     4    13 1   
    10     5     7 1   
    11     5     8 1   
    12     5    14 1   
    13     6     8 2   
    14     6    15 1   
    15     9    10 1   
    16     9    11 1   
    17    11    16 1   
    18    11    17 1   
@<TRIPOS>SUBSTRUCTURE
     1 O66         1 TEMP              0 ****  ****    0 ROOT
