@<TRIPOS>MOLECULE
O67
   50    52     1     0     0
SMALL
No Charge or Current Charge


@<TRIPOS>ATOM
      1 C01          8.4540    -1.8990    -1.6430 c3         1 O67      -0.077100
      2 C02          8.6240    -0.9210    -0.4590 c3         1 O67      -0.152400
      3 C03          7.3280    -0.1470    -0.1830 c          1 O67       0.615100
      4 O04          7.1390     0.8670    -0.8520 o          1 O67      -0.591100
      5 N05          6.5510    -0.7870     0.8380 nj         1 O67      -0.438800
      6 C06          5.2250    -0.9020     0.1420 cy         1 O67       0.091000
      7 C07          4.6130    -0.2330     1.4180 cy         1 O67       0.077700
      8 C08          6.0360     0.3860     1.6240 cy         1 O67       0.091000
      9 N09          3.4570     0.6260     1.3050 ns         1 O67      -0.504900
     10 C10          2.1920     0.1720     0.9820 c          1 O67       0.598100
     11 O11          1.9720    -1.0140     0.7660 o          1 O67      -0.552100
     12 C12          1.1070     1.2730     0.9180 c3         1 O67       0.084600
     13 O13         -0.1950     0.7410     0.5720 os         1 O67      -0.333100
     14 C14         -1.3180     1.5390     0.4550 ca         1 O67       0.103100
     15 C15         -1.2670     2.9350     0.6700 ca         1 O67      -0.175000
     16 C16         -2.4310     3.7100     0.5420 ca         1 O67      -0.072000
     17 C17         -3.6450     3.0960     0.2000 ca         1 O67      -0.025900
     18 Br18        -5.2280     4.1550     0.0270 br         1 O67      -0.088100
     19 C19         -3.7050     1.7100    -0.0150 ca         1 O67      -0.083000
     20 C20         -2.5400     0.9180     0.1110 ca         1 O67      -0.039000
     21 N21         -2.5280    -0.4930    -0.0930 ns         1 O67      -0.124000
     22 C22         -3.5190    -1.4050    -0.4310 c          1 O67       0.539600
     23 O23         -4.6930    -1.1060    -0.6290 o          1 O67      -0.566100
     24 C24         -3.0040    -2.7940    -0.5280 cc         1 O67       0.099500
     25 C25         -3.7150    -3.9150    -0.8390 cd         1 O67      -0.168000
     26 C26         -2.7940    -4.9760    -0.8040 cd         1 O67       0.261300
     27 C27         -3.0850    -6.4240    -1.0770 c3         1 O67      -0.133400
     28 N28         -1.5730    -4.5780    -0.4940 nc         1 O67      -0.337300
     29 O29         -1.6930    -3.1490    -0.3100 os         1 O67      -0.064700
     30 H1           9.3860    -2.4490    -1.8220 hc         1 O67       0.043033
     31 H2           7.6610    -2.6270    -1.4340 hc         1 O67       0.043033
     32 H3           8.1930    -1.3570    -2.5600 hc         1 O67       0.043033
     33 H4           8.8890    -1.5220     0.4190 hc         1 O67       0.053200
     34 H5           9.4310    -0.2180    -0.6970 hc         1 O67       0.053200
     35 H6           5.0750    -0.3190    -0.7760 h1         1 O67       0.062700
     36 H7           4.9040    -1.9370    -0.0120 h1         1 O67       0.062700
     37 H8           4.3960    -0.9810     2.1900 h1         1 O67       0.092700
     38 H9           6.3700     0.3870     2.6670 h1         1 O67       0.062700
     39 H10          6.1490     1.3880     1.1930 h1         1 O67       0.062700
     40 H11          3.5500     1.6220     1.4720 hn         1 O67       0.317500
     41 H12          1.0750     1.7610     1.9000 h1         1 O67       0.053700
     42 H13          1.4320     2.0130     0.1770 h1         1 O67       0.053700
     43 H14         -0.3400     3.4340     0.9350 ha         1 O67       0.118000
     44 H15         -2.3910     4.7850     0.7070 ha         1 O67       0.132000
     45 H16         -4.6630     1.2730    -0.2770 ha         1 O67       0.167000
     46 H17         -1.6120    -0.9060     0.0360 hn         1 O67       0.199000
     47 H18         -4.7730    -3.9740    -1.0660 ha         1 O67       0.168000
     48 H19         -2.4930    -6.7900    -1.9240 hc         1 O67       0.059033
     49 H20         -2.8460    -7.0420    -0.2030 hc         1 O67       0.059033
     50 H21         -4.1440    -6.5760    -1.3160 hc         1 O67       0.059033
@<TRIPOS>BOND
     1     1     2 1   
     2     1    30 1   
     3     1    31 1   
     4     1    32 1   
     5     2     3 1   
     6     2    33 1   
     7     2    34 1   
     8     3     4 2   
     9     3     5 1   
    10     5     6 1   
    11     5     8 1   
    12     6     7 1   
    13     6    35 1   
    14     6    36 1   
    15     7     8 1   
    16     7     9 1   
    17     7    37 1   
    18     8    38 1   
    19     8    39 1   
    20     9    10 1   
    21     9    40 1   
    22    10    11 2   
    23    10    12 1   
    24    12    13 1   
    25    12    41 1   
    26    12    42 1   
    27    13    14 1   
    28    14    15 ar  
    29    14    20 ar  
    30    15    16 ar  
    31    15    43 1   
    32    16    17 ar  
    33    16    44 1   
    34    17    18 1   
    35    17    19 ar  
    36    19    20 ar  
    37    19    45 1   
    38    20    21 1   
    39    21    22 1   
    40    21    46 1   
    41    22    23 2   
    42    22    24 1   
    43    24    25 2   
    44    24    29 1   
    45    25    26 1   
    46    25    47 1   
    47    26    27 1   
    48    26    28 2   
    49    27    48 1   
    50    27    49 1   
    51    27    50 1   
    52    28    29 1   
@<TRIPOS>SUBSTRUCTURE
     1 O67         1 TEMP              0 ****  ****    0 ROOT
