@<TRIPOS>MOLECULE
O67
   50    52     1     0     0
SMALL
bcc


@<TRIPOS>ATOM
      1 C01          9.5760    -0.7150    -1.1290 c3         1 O67      -0.077100
      2 C02          8.3670    -0.5210    -0.2320 c3         1 O67      -0.152400
      3 C03          7.1130    -1.1800    -0.7620 c          1 O67       0.682100
      4 O04          7.0690    -1.8150    -1.8080 o          1 O67      -0.591100
      5 N05          6.0280    -1.0270     0.0060 nj         1 O67      -0.505800
      6 C06          4.6580    -1.4550    -0.2050 cy         1 O67       0.091000
      7 C07          4.3010    -0.7780     1.1420 cy         1 O67       0.077700
      8 C08          5.7560    -0.2730     1.2170 cy         1 O67       0.091000
      9 N09          3.3090     0.2580     1.1120 ns         1 O67      -0.571900
     10 C10          2.0040    -0.0320     0.9970 c          1 O67       0.665100
     11 O11          1.5710    -1.1680     0.9490 o          1 O67      -0.552100
     12 C12          1.0990     1.1890     0.9610 c3         1 O67       0.061400
     13 O13         -0.1650     0.7400     0.5530 os         1 O67      -0.309900
     14 C14         -1.1970     1.5990     0.4930 ca         1 O67       0.103100
     15 C15         -1.1130     2.9610     0.7150 ca         1 O67      -0.193000
     16 C16         -2.2480     3.7600     0.6170 ca         1 O67      -0.090000
     17 C17         -3.4540     3.1710     0.2970 ca         1 O67      -0.025900
     18 BR18        -5.0050     4.2410     0.1570 br         1 O67      -0.088100
     19 C19         -3.5660     1.8030     0.0730 ca         1 O67      -0.101000
     20 C20         -2.4340     1.0050     0.1720 ca         1 O67       0.053600
     21 N21         -2.4140    -0.3790    -0.0110 ns         1 O67      -0.450100
     22 C22         -3.4270    -1.1840    -0.3990 c          1 O67       0.606600
     23 O23         -4.5570    -0.8300    -0.6740 o          1 O67      -0.566100
     24 C24         -3.0770    -2.6210    -0.4780 cc         1 O67       0.209200
     25 C25         -3.8290    -3.6790    -0.8540 cd         1 O67      -0.316600
     26 C26         -2.9420    -4.7810    -0.7170 cd         1 O67       0.326600
     27 C27         -3.2180    -6.2140    -0.9920 c3         1 O67      -0.133400
     28 N28         -1.7740    -4.3820    -0.2960 nc         1 O67      -0.337300
     29 O29         -1.8520    -3.0340    -0.1440 os         1 O67      -0.109100
     30 H1          10.4430    -0.2120    -0.7020 hc         1 O67       0.043033
     31 H2           9.8280    -1.7690    -1.2440 hc         1 O67       0.043033
     32 H3           9.4100    -0.3000    -2.1230 hc         1 O67       0.043033
     33 H4           8.5700    -0.9130     0.7690 hc         1 O67       0.053200
     34 H5           8.1690     0.5460    -0.0900 hc         1 O67       0.053200
     35 H6           4.1830    -0.9980    -1.0770 h1         1 O67       0.062700
     36 H7           4.5190    -2.5360    -0.2420 h1         1 O67       0.062700
     37 H8           4.0680    -1.5030     1.9210 h1         1 O67       0.092700
     38 H9           6.3160    -0.5950     2.0960 h1         1 O67       0.062700
     39 H10          5.8700     0.8090     1.1010 h1         1 O67       0.062700
     40 H11          3.6150     1.2170     1.0500 hn         1 O67       0.317500
     41 H12          1.0600     1.6410     1.9590 h1         1 O67       0.053700
     42 H13          1.5000     1.9400     0.2710 h1         1 O67       0.053700
     43 H14         -0.1710     3.4290     0.9640 ha         1 O67       0.136000
     44 H15         -2.1640     4.8240     0.7890 ha         1 O67       0.150000
     45 H16         -4.5190     1.3660    -0.1730 ha         1 O67       0.185000
     46 H17         -1.5170    -0.8110     0.1670 hn         1 O67       0.365500
     47 H18         -4.8540    -3.6910    -1.1810 ha         1 O67       0.186000
     48 H19         -3.4940    -6.3550    -2.0360 hc         1 O67       0.059033
     49 H20         -2.3470    -6.8300    -0.7770 hc         1 O67       0.059033
     50 H21         -4.0500    -6.5650    -0.3820 hc         1 O67       0.059033
@<TRIPOS>BOND
     1     1     2 1   
     2     1    30 1   
     3     1    31 1   
     4     1    32 1   
     5     2     3 1   
     6     2    33 1   
     7     2    34 1   
     8     3     4 2   
     9     3     5 1   
    10     5     6 1   
    11     5     8 1   
    12     6     7 1   
    13     6    35 1   
    14     6    36 1   
    15     7     8 1   
    16     7     9 1   
    17     7    37 1   
    18     8    38 1   
    19     8    39 1   
    20     9    10 1   
    21     9    40 1   
    22    10    11 2   
    23    10    12 1   
    24    12    13 1   
    25    12    41 1   
    26    12    42 1   
    27    13    14 1   
    28    14    15 ar  
    29    14    20 ar  
    30    15    16 ar  
    31    15    43 1   
    32    16    17 ar  
    33    16    44 1   
    34    17    18 1   
    35    17    19 ar  
    36    19    20 ar  
    37    19    45 1   
    38    20    21 1   
    39    21    22 1   
    40    21    46 1   
    41    22    23 2   
    42    22    24 1   
    43    24    25 2   
    44    24    29 1   
    45    25    26 1   
    46    25    47 1   
    47    26    27 1   
    48    26    28 2   
    49    27    48 1   
    50    27    49 1   
    51    27    50 1   
    52    28    29 1   
@<TRIPOS>SUBSTRUCTURE
     1 O67         1 TEMP              0 ****  ****    0 ROOT
