@<TRIPOS>MOLECULE
O68
   26    26     1     0     0
SMALL
No Charge or Current Charge


@<TRIPOS>ATOM
      1 C02        -14.9280   -18.3870     3.4390 c3         1 O68       0.047600
      2 C03        -15.9820   -18.6060     2.3290 c3         1 O68       0.115000
      3 C05        -14.3330   -19.4260     0.6090 c3         1 O68       0.078300
      4 C06        -16.1320   -20.9580     1.4170 c          1 O68       0.622700
      5 C08        -17.5720   -21.1510     1.8420 ca         1 O68      -0.160600
      6 C09        -18.5760   -20.2110     1.5070 ca         1 O68      -0.047500
      7 C10        -19.9110   -20.4300     1.8910 ca         1 O68      -0.161000
      8 C11        -20.2560   -21.5920     2.5950 ca         1 O68       0.186000
      9 C13        -19.2760   -22.5440     2.9110 ca         1 O68      -0.161000
     10 C14        -17.9400   -22.3290     2.5280 ca         1 O68      -0.047500
     11 F12        -21.5390   -21.8010     2.9610 f          1 O68      -0.177000
     12 N04        -15.6080   -19.6450     1.3290 n          1 O68      -0.403800
     13 O07        -15.4660   -21.9210     1.0560 o          1 O68      -0.574100
     14 S01        -14.6080   -19.8890     4.4830 sh         1 O68      -0.440800
     15 H1         -13.9800   -18.0630     2.9910 h1         1 O68       0.064700
     16 H2         -15.2740   -17.5810     4.0990 h1         1 O68       0.064700
     17 H3         -16.1410   -17.6570     1.8000 h1         1 O68       0.063200
     18 H4         -16.9240   -18.8600     2.8260 h1         1 O68       0.063200
     19 H5         -14.1520   -18.3510     0.4760 h1         1 O68       0.044367
     20 H6         -13.5040   -19.8640     1.1790 h1         1 O68       0.044367
     21 H7         -14.3790   -19.8970    -0.3810 h1         1 O68       0.044367
     22 H8         -18.3290   -19.3180     0.9350 ha         1 O68       0.128000
     23 H9         -20.6790   -19.7050     1.6350 ha         1 O68       0.134500
     24 H10        -19.5520   -23.4470     3.4490 ha         1 O68       0.134500
     25 H11        -17.1870   -23.0750     2.7760 ha         1 O68       0.128000
     26 H12        -13.6840   -19.3150     5.2930 hs         1 O68       0.211800
@<TRIPOS>BOND
     1     1     2 1   
     2     1    14 1   
     3     1    15 1   
     4     1    16 1   
     5     2    12 1   
     6     2    17 1   
     7     2    18 1   
     8     3    12 1   
     9     3    19 1   
    10     3    20 1   
    11     3    21 1   
    12     4     5 1   
    13     4    12 1   
    14     4    13 2   
    15     5     6 ar  
    16     5    10 ar  
    17     6     7 ar  
    18     6    22 1   
    19     7     8 ar  
    20     7    23 1   
    21     8     9 ar  
    22     8    11 1   
    23     9    10 ar  
    24     9    24 1   
    25    10    25 1   
    26    14    26 1   
@<TRIPOS>SUBSTRUCTURE
     1 O68         1 TEMP              0 ****  ****    0 ROOT
