@<TRIPOS>MOLECULE
O68
   26    26     1     0     0
SMALL
bcc


@<TRIPOS>ATOM
      1 C02        -15.0130   -18.5230     3.4590 c3         1 O68      -0.000300
      2 C03        -15.9790   -18.6130     2.2840 c3         1 O68       0.115000
      3 C05        -14.3100   -19.4370     0.6780 c3         1 O68       0.078300
      4 C06        -16.1800   -20.8430     1.2130 c          1 O68       0.689700
      5 C08        -17.5540   -21.0210     1.7800 ca         1 O68      -0.160600
      6 C09        -18.6280   -20.2400     1.3630 ca         1 O68      -0.065500
      7 C10        -19.9120   -20.4990     1.8170 ca         1 O68      -0.179000
      8 C11        -20.1010   -21.5440     2.7010 ca         1 O68       0.150900
      9 C13        -19.0570   -22.3400     3.1320 ca         1 O68      -0.179000
     10 C14        -17.7830   -22.0790     2.6540 ca         1 O68      -0.065500
     11 F12        -21.3380   -21.7970     3.1520 f          1 O68      -0.141900
     12 N04        -15.6020   -19.6170     1.3090 n          1 O68      -0.470800
     13 O07        -15.6420   -21.7770     0.6500 o          1 O68      -0.574100
     14 S01        -14.8660   -20.1670     4.2280 sh         1 O68      -0.392900
     15 H1         -14.0330   -18.1680     3.1410 h1         1 O68       0.064700
     16 H2         -15.4110   -17.8060     4.1770 h1         1 O68       0.064700
     17 H3         -16.0200   -17.6340     1.7970 h1         1 O68       0.063200
     18 H4         -16.9760   -18.8200     2.6620 h1         1 O68       0.063200
     19 H5         -14.1250   -18.3720     0.5470 h1         1 O68       0.044367
     20 H6         -13.4970   -19.8610     1.2720 h1         1 O68       0.044367
     21 H7         -14.2960   -19.9080    -0.3020 h1         1 O68       0.044367
     22 H8         -18.4730   -19.4260     0.6670 ha         1 O68       0.146000
     23 H9         -20.7490   -19.8970     1.4890 ha         1 O68       0.152500
     24 H10        -19.2340   -23.1520     3.8240 ha         1 O68       0.152500
     25 H11        -16.9580   -22.7020     2.9740 ha         1 O68       0.146000
     26 H12        -14.1750   -19.7790     5.3050 hs         1 O68       0.211800
@<TRIPOS>BOND
     1     1     2 1   
     2     1    14 1   
     3     1    15 1   
     4     1    16 1   
     5     2    12 1   
     6     2    17 1   
     7     2    18 1   
     8     3    12 1   
     9     3    19 1   
    10     3    20 1   
    11     3    21 1   
    12     4     5 1   
    13     4    12 1   
    14     4    13 2   
    15     5     6 ar  
    16     5    10 ar  
    17     6     7 ar  
    18     6    22 1   
    19     7     8 ar  
    20     7    23 1   
    21     8     9 ar  
    22     8    11 1   
    23     9    10 ar  
    24     9    24 1   
    25    10    25 1   
    26    14    26 1   
@<TRIPOS>SUBSTRUCTURE
     1 O68         1 TEMP              0 ****  ****    0 ROOT
