@<TRIPOS>MOLECULE
O69
   73    79     1     0     0
SMALL
abcg2


@<TRIPOS>ATOM
      1 N1          14.2200     1.6160   -17.8730 na         1 O69      -0.151600
      2 C7          21.5460    -1.9160   -18.0940 ca         1 O69      -0.111000
      3 C8          21.8880    -0.7320   -17.4050 ca         1 O69      -0.112000
      4 N2          18.6530    -1.6630   -16.1770 ns         1 O69      -0.501900
      5 C9          21.3610     0.4690   -17.7920 ca         1 O69      -0.089000
      6 O1          15.8080     2.2900   -20.5920 o          1 O69      -0.607100
      7 C1          18.4630     3.1630   -20.8340 c3         1 O69       0.158000
      8 C5          20.1240    -0.6420   -19.5790 ca         1 O69      -0.039000
      9 C6          20.6800    -1.8730   -19.1530 ca         1 O69      -0.114000
     10 N3          11.5460    -1.2110   -15.0910 nb         1 O69      -0.663000
     11 C4          19.2410    -0.5550   -20.6790 ca         1 O69      -0.108000
     12 C3          18.7350     0.6530   -21.0740 ca         1 O69      -0.081000
     13 C2          19.0770     1.8450   -20.3970 ca         1 O69      -0.104300
     14 N4          12.5510     2.6340   -16.7850 nc         1 O69      -0.562100
     15 N           17.4810     3.6230   -19.8640 ns         1 O69      -0.501900
     16 C           19.4950     4.2560   -21.0690 c3         1 O69      -0.101100
     17 O           17.1680    -0.5250   -14.9270 o          1 O69      -0.605100
     18 C10         20.4710     0.5480   -18.8900 ca         1 O69      -0.042000
     19 C11         19.9290     1.7780   -19.3240 ca         1 O69      -0.088000
     20 C12         16.2330     3.1310   -19.8110 c          1 O69       0.620700
     21 C13         15.3390     3.7250   -18.7750 ca         1 O69      -0.155600
     22 C14         15.2420     5.1060   -18.6560 ca         1 O69      -0.071000
     23 C15         14.2440     5.7220   -17.8920 ca         1 O69      -0.146000
     24 C16         13.2880     4.9710   -17.2370 ca         1 O69      -0.025000
     25 C17         13.3770     3.5840   -17.3240 ca         1 O69       0.059400
     26 C18         14.4090     2.9690   -18.0530 ca         1 O69      -0.030200
     27 C19         15.2220     0.5870   -18.1120 cy         1 O69       0.067300
     28 C20         16.6550     0.8910   -17.6430 cy         1 O69      -0.085400
     29 C21         16.7920    -0.6020   -17.2870 cy         1 O69      -0.172700
     30 C22         17.5460    -0.9260   -16.0210 c          1 O69       0.608100
     31 C23         19.5120    -2.0210   -15.0750 c3         1 O69       0.096300
     32 C24         15.2580    -0.6660   -17.2200 cy         1 O69      -0.085400
     33 C25         13.0700     1.4900   -17.1360 cd         1 O69       0.477400
     34 C26         12.4450     0.2040   -16.8120 ca         1 O69      -0.154900
     35 C27         12.1210    -0.7540   -17.8110 ca         1 O69       0.008000
     36 C28         12.3270    -0.5690   -19.1980 ca         1 O69      -0.107000
     37 C29         11.9890    -1.5600   -20.0810 ca         1 O69      -0.090000
     38 C30         11.4290    -2.7750   -19.6340 ca         1 O69      -0.114000
     39 C31         11.1970    -2.9700   -18.3020 ca         1 O69      -0.082000
     40 C32         11.5320    -1.9620   -17.3700 ca         1 O69      -0.108000
     41 C33         11.2780    -2.1190   -15.9890 ca         1 O69       0.372900
     42 C34         12.1230    -0.0670   -15.5060 ca         1 O69       0.369900
     43 H2          22.5710    -0.7810   -16.5670 ha         1 O69       0.117000
     44 H3          18.9400    -1.9250   -17.1060 hn         1 O69       0.319500
     45 H4          21.6230     1.3770   -17.2640 ha         1 O69       0.116000
     46 H5          17.9310     2.9910   -21.7710 h1         1 O69       0.080700
     47 H6          20.4160    -2.7800   -19.6840 ha         1 O69       0.116000
     48 H7          18.9710    -1.4600   -21.2110 ha         1 O69       0.117000
     49 H8          18.0620     0.7020   -21.9210 ha         1 O69       0.127000
     50 H9          17.8050     4.2110   -19.1100 hn         1 O69       0.318500
     51 H10         19.0120     5.1570   -21.4470 hc         1 O69       0.045700
     52 H11         20.0280     4.5180   -20.1530 hc         1 O69       0.045700
     53 H12         20.2300     3.9290   -21.8010 hc         1 O69       0.045700
     54 H13         20.2010     2.6760   -18.7780 ha         1 O69       0.112000
     55 H14         15.9250     5.7330   -19.2160 ha         1 O69       0.112000
     56 H15         14.2060     6.8020   -17.8490 ha         1 O69       0.118000
     57 H16         12.4890     5.4390   -16.6770 ha         1 O69       0.133000
     58 H17         15.2130     0.3020   -19.1640 h1         1 O69       0.093700
     59 H18         16.6490     1.5100   -16.7440 hc         1 O69       0.076450
     60 H19         17.3700     1.2890   -18.3570 hc         1 O69       0.076450
     61 H20         17.1740    -1.1640   -18.1420 hc         1 O69       0.066700
     62 H21         20.2790    -2.6970   -15.4400 h1         1 O69       0.038700
     63 H22         20.0050    -1.1490   -14.6420 h1         1 O69       0.038700
     64 H23         18.9540    -2.5270   -14.2870 h1         1 O69       0.038700
     65 H24         14.7730    -1.5670   -17.5890 hc         1 O69       0.076450
     66 H25         14.9220    -0.4630   -16.2040 hc         1 O69       0.076450
     67 H26         12.7420     0.3570   -19.5710 ha         1 O69       0.136000
     68 H27         12.1500    -1.4080   -21.1400 ha         1 O69       0.118000
     69 H28         11.1760    -3.5430   -20.3520 ha         1 O69       0.117000
     70 H29         10.7530    -3.8910   -17.9440 ha         1 O69       0.117000
     71 H30         10.8250    -3.0430   -15.6410 h4         1 O69       0.020100
     72 H31         12.3530     0.6590   -14.7340 h4         1 O69       0.037100
     73 H1          21.9700    -2.8610   -17.7780 ha         1 O69       0.115000
@<TRIPOS>BOND
     1     1    26 1   
     2     1    27 1   
     3     1    33 1   
     4     2     3 ar  
     5     2     9 ar  
     6     2    73 1   
     7     3     5 ar  
     8     3    43 1   
     9     4    30 1   
    10     4    31 1   
    11     4    44 1   
    12     5    18 ar  
    13     5    45 1   
    14     6    20 2   
    15     7    13 1   
    16     7    15 1   
    17     7    16 1   
    18     7    46 1   
    19     8     9 ar  
    20     8    11 ar  
    21     8    18 ar  
    22     9    47 1   
    23    10    41 ar  
    24    10    42 ar  
    25    11    12 ar  
    26    11    48 1   
    27    12    13 ar  
    28    12    49 1   
    29    13    19 ar  
    30    14    25 1   
    31    14    33 2   
    32    15    20 1   
    33    15    50 1   
    34    16    51 1   
    35    16    52 1   
    36    16    53 1   
    37    17    30 2   
    38    18    19 ar  
    39    19    54 1   
    40    20    21 1   
    41    21    22 ar  
    42    21    26 ar  
    43    22    23 ar  
    44    22    55 1   
    45    23    24 ar  
    46    23    56 1   
    47    24    25 ar  
    48    24    57 1   
    49    25    26 ar  
    50    27    28 1   
    51    27    32 1   
    52    27    58 1   
    53    28    29 1   
    54    28    59 1   
    55    28    60 1   
    56    29    30 1   
    57    29    32 1   
    58    29    61 1   
    59    31    62 1   
    60    31    63 1   
    61    31    64 1   
    62    32    65 1   
    63    32    66 1   
    64    33    34 1   
    65    34    35 ar  
    66    34    42 ar  
    67    35    36 ar  
    68    35    40 ar  
    69    36    37 ar  
    70    36    67 1   
    71    37    38 ar  
    72    37    68 1   
    73    38    39 ar  
    74    38    69 1   
    75    39    40 ar  
    76    39    70 1   
    77    40    41 ar  
    78    41    71 1   
    79    42    72 1   
@<TRIPOS>SUBSTRUCTURE
     1 O69         1 TEMP              0 ****  ****    0 ROOT
